%%%%%%%%%%%%%%%%%%%%%%%%%%%%%%%%%%%%%%%%%%%%%%%%%%%%%%%%%%%%%%%%%%%%%%%%%%%%%%%%
%                                                                              %
% SU2 configuration file                                                       %
% Case description:                                                            %
% Author:                                                                      %
% Date: 2023-07-27                                                             %
% SU2 version:                                                                 %
%                                                                              %
%%%%%%%%%%%%%%%%%%%%%%%%%%%%%%%%%%%%%%%%%%%%%%%%%%%%%%%%%%%%%%%%%%%%%%%%%%%%%%%%
SOLVER= INC_NAVIER_STOKES
BODY_FORCE= NO
BODY_FORCE_VECTOR= (0.0, 0.0, 0.0)
KIND_TURB_SOLVER= NONE
SST_OPTIONS= V1994m
SA_OPTIONS= NONE EXPERIMENTAL 
AXISYMMETRIC= NO
RESTART_SOL= YES
INC_VELOCITY_INIT= (0.0, 0.0, 8.0)
INC_ENERGY_EQUATION= YES
FLUID_MODEL= CONSTANT_DENSITY
INC_DENSITY_MODEL= CONSTANT
VISCOSITY_MODEL= CONSTANT_VISCOSITY
MU_CONSTANT= 1.716e-05
MU_REF= 1.716e-05
MU_T_REF= 273.15
SUTHERLAND_CONSTANT= 110.4
MU_POLYCOEFFS= (0.0, 0.0, 0.0, 0.0, 0.0)
CONDUCTIVITY_MODEL= CONSTANT_CONDUCTIVITY
THERMAL_CONDUCTIVITY_CONSTANT= 0.0257
PRANDTL_LAM= 0.72
KT_POLYCOEFFS= (0.0, 0.0, 0.0, 0.0, 0.0)
TURBULENT_CONDUCTIVITY_MODEL= CONSTANT_PRANDTL_TURB
PRANDTL_TURB= 0.9
INC_INLET_TYPE= VELOCITY_INLET
INC_OUTLET_TYPE= PRESSURE_OUTLET
MARKER_INLET= (inlet_1, 300.0, 1.0, 1.0, 1.0, 1.0, inlet_2, 400.0, 2.0, 0.0, 1.0, 0.0)
MARKER_INLET_TURBULENT= (inlet, 0.1, 100.0)
MARKER_OUTLET= (outlet1, 0.0, outlet2, 0.0)
MARKER_SYM= (symmetry_1, symmetry_bend, symmetry_2)
KIND_INVALID= (string1, 0.0)
NUM_METHOD_GRAD= WEIGHTED_LEAST_SQUARES
NUM_METHOD_GRAD_RECON= WEIGHTED_LEAST_SQUARES
CFL_NUMBER= 1.0
