
-------------------------------------------------------------------------
|    ___ _   _ ___                                                      |
|   / __| | | |_  )   Release 7.5.1 "Blackbird"                         |
|   \__ \ |_| |/ /                                                      |
|   |___/\___//___|   Suite (Computational Fluid Dynamics Code)         |
|                                                                       |
-------------------------------------------------------------------------
| SU2 Project Website: https://su2code.github.io                        |
|                                                                       |
| The SU2 Project is maintained by the SU2 Foundation                   |
| (http://su2foundation.org)                                            |
-------------------------------------------------------------------------
| Copyright 2012-2023, SU2 Contributors                                 |
|                                                                       |
| SU2 is free software; you can redistribute it and/or                  |
| modify it under the terms of the GNU Lesser General Public            |
| License as published by the Free Software Foundation; either          |
| version 2.1 of the License, or (at your option) any later version.    |
|                                                                       |
| SU2 is distributed in the hope that it will be useful,                |
| but WITHOUT ANY WARRANTY; without even the implied warranty of        |
| MERCHANTABILITY or FITNESS FOR A PARTICULAR PURPOSE. See the GNU      |
| Lesser General Public License for more details.                       |
|                                                                       |
| You should have received a copy of the GNU Lesser General Public      |
| License along with SU2. If not, see <http://www.gnu.org/licenses/>.   |
-------------------------------------------------------------------------

Parsing config file for zone 0

----------------- Physical Case Definition ( Zone 0 ) -------------------
Incompressible RANS equations.
Turbulence model: Negative-Spalart-Allmaras
Hybrid RANS/LES: No Hybrid RANS/LES
Reading and writing ASCII SU2 native restart files.
Read flow solution from: solution.
Dimensional simulation.
The reference area is 1 m^2.
The semi-span will be computed using the max y(3D) value.
The reference length is 1 m.
Input mesh file name: mesh_out.su2

--------------- Space Numerical Integration ( Zone 0 ) ------------------
Flux difference splitting (FDS) upwind scheme for the flow inviscid terms.
Second order integration in space, with slope limiter.
Venkatakrishnan slope-limiting method, with constant: 0.05.
The reference element size is: 1. 
Average of gradients with correction (viscous flow terms).
Average of gradients with correction (viscous turbulence terms).
Gradient for upwind reconstruction: Green-Gauss.
Gradient for viscous and source terms: Green-Gauss.

--------------- Time Numerical Integration  ( Zone 0 ) ------------------
Local time stepping (steady state simulation).
Euler implicit method for the flow equations.
FGMRES is used for solving the linear system.
Using a LU-SGS preconditioning.
Convergence criteria of the linear solver: 1e-10.
Max number of linear iterations: 5.
No CFL adaptation.
Courant-Friedrichs-Lewy number:        1
Euler implicit time integration for the turbulence model.

------------------ Convergence Criteria  ( Zone 0 ) ---------------------
Maximum number of solver subiterations: 10000.
Begin convergence monitoring at iteration 10.
Residual minimum value: 1e-12.
Cauchy series min. value: 1e-10.
Number of Cauchy elements: 100.
Begin windowed time average at iteration 0.

-------------------- Output Information ( Zone 0 ) ----------------------
File writing frequency: 
+------------------------------------+
|                     File| Frequency|
+------------------------------------+
|            RESTART_ASCII|       100|
|      PARAVIEW_MULTIBLOCK|       100|
+------------------------------------+
Writing the convergence history file every 10 inner iterations.
Writing the screen convergence history every 1 inner iterations.
The tabular file format is CSV (.csv).
Convergence history file name: history.
Forces breakdown file name: forces_breakdown.dat.
Surface file name: surface.
Volume file name: flow.
Restart file name: restart.

------------- Config File Boundary Information ( Zone 0 ) ---------------
+-----------------------------------------------------------------------+
|                        Marker Type|                        Marker Name|
+-----------------------------------------------------------------------+
|                    Isothermal wall|                          gas_inlet|
|                                   |                    air_axial_inlet|
|                                   |                             outlet|
|                                   |                               axis|
|                                   |                               wall|
+-----------------------------------------------------------------------+

-------------------- Output Preprocessing ( Zone 0 ) --------------------

WARNING: SURFACE_PRESSURE_DROP can only be computed for at least 2 surfaces (outlet, inlet, ...)

  Info: Ignoring the following screen output fields:
  RMS_DENSITY
Screen output fields: INNER_ITER, RMS_PRESSURE
History output group(s): ITER, RMS_RES
Convergence field(s): RMS_PRESSURE
Warning: No (valid) fields chosen for time convergence monitoring. Time convergence monitoring inactive.
Volume output fields: RESIDUAL, SOLUTION, PRIMITIVE, COORDINATES

------------------- Geometry Preprocessing ( Zone 0 ) -------------------
Two dimensional problem.
3510 grid points.
3364 volume elements.
5 surface markers.
29 boundary elements in index 0 (Marker = gas_inlet).
29 boundary elements in index 1 (Marker = air_axial_inlet).
29 boundary elements in index 2 (Marker = outlet).
87 boundary elements in index 3 (Marker = axis).
116 boundary elements in index 4 (Marker = wall).
3364 quadrilaterals.
Setting point connectivity.
Renumbering points (Reverse Cuthill McKee Ordering).
Recomputing point connectivity.
Setting element connectivity.
Checking the numerical grid orientation.
There has been a re-orientation of 2523 QUADRILATERAL volume elements.
There has been a re-orientation of 290 LINE surface elements.
Identifying edges and vertices.
Setting the control volume structure.
Area of the computational grid: 0.002925.
Searching for the closest normal neighbors to the surfaces.
Storing a mapping from global to local point index.
Compute the surface curvature.
Max K: 5722.1. Mean K: 45.6971. Standard deviation K: 397.615.
Checking for periodicity.
Computing mesh quality statistics for the dual control volumes.
+--------------------------------------------------------------+
|           Mesh Quality Metric|        Minimum|        Maximum|
+--------------------------------------------------------------+
|    Orthogonality Angle (deg.)|             90|             90|
|     CV Face Area Aspect Ratio|        1.00061|         217.83|
|           CV Sub-Volume Ratio|              1|        4.90961|
+--------------------------------------------------------------+
Finding max control volume width.
Wetted area = 0 m.
Area projection in the x-plane = 0 m, y-plane = 0 m.
Max. coordinate in the x-direction = -1e+10 m, y-direction = -1e+10 m.
Min. coordinate in the x-direction = 1e+10 m, y-direction = 1e+10 m.
Computing wall distances.

-------------------- Solver Preprocessing ( Zone 0 ) --------------------
 Warning: There is no restart file (flow.meta).
 Computation will continue without updating metadata parameters.
Incompressible flow: rho_ref, vel_ref, temp_ref, p_ref
are set to 1.0 in order to perform a dimensional calculation.
Force coefficients computed using initial values.
The reference area for force coeffs. is 1 m^2.
The reference length for force coeffs. is 1 m.
The pressure is decomposed into thermodynamic and dynamic components.
The initial value of the dynamic pressure is 0.
Mach number: 0, computed using fluid speed of sound.
For external flows, the initial state is imposed at the far-field.
Angle of attack (deg): 0, computed using the initial velocity.
Side slip angle (deg): 0, computed using the initial velocity.
Reynolds number per meter: 72017.1, computed using initial values.
Reynolds number is a byproduct of inputs only (not used internally).
SI units only. The grid should be dimensional (meters).
Energy equation is active and coupled for variable density.

-- Models:
+------------------------------------------------------------------------------+
|          Viscosity Model|        Conductivity Model|              Fluid Model|
+------------------------------------------------------------------------------+
|               SUTHERLAND|          CONSTANT_PRANDTL|            INC_IDEAL_GAS|
+------------------------------------------------------------------------------+
-- Fluid properties:
+------------------------------------------------------------------------------+
|                  Name|    Dim. value|    Ref. value|      Unit|Non-dim. value|
+------------------------------------------------------------------------------+
|        Ref. Viscosity|     1.716e-05|             1|   N.s/m^2|     1.716e-05|
|      Sutherland Temp.|        273.15|             1|         K|        273.15|
|     Sutherland Const.|         110.4|             1|         K|         110.4|
+------------------------------------------------------------------------------+
|        Prandtl (Lam.)|             -|             -|         -|          0.72|
|       Prandtl (Turb.)|             -|             -|         -|           0.9|
+------------------------------------------------------------------------------+
|       Spec. Heat (Cp)|          1001|             1|  N.m/kg.K|          1001|
|      Molecular weight|          28.9|             1|     g/mol|          28.9|
|          Gas Constant|       287.698|             1|  N.m/kg.K|       287.698|
|       Therm. Pressure|        106825|             1|        Pa|        106825|
+------------------------------------------------------------------------------+
-- Initial and free-stream conditions:
+------------------------------------------------------------------------------+
|                  Name|    Dim. value|    Ref. value|      Unit|Non-dim. value|
+------------------------------------------------------------------------------+
|      Dynamic Pressure|             0|             1|        Pa|             0|
|        Total Pressure|        0.6443|             1|        Pa|        0.6443|
|               Density|        1.2886|             1|    kg/m^3|        1.2886|
|           Temperature|        288.15|             1|         K|        288.15|
|            Velocity-X|             1|             1|       m/s|             1|
|            Velocity-Y|             0|             1|       m/s|             0|
|    Velocity Magnitude|             1|             1|       m/s|             1|
+------------------------------------------------------------------------------+
|             Viscosity|    1.7893e-05|             1|   N.s/m^2|    1.7893e-05|
|          Conductivity|             -|             1|   W/m^2.K|             -|
|     Turb. Kin. Energy|       0.00375|             1|   m^2/s^2|       0.00375|
|     Spec. Dissipation|       27.0064|             1|       1/s|       27.0064|
+------------------------------------------------------------------------------+
|           Mach Number|             -|             -|         -|             0|
|       Reynolds Number|             -|             -|         -|       72017.1|
+------------------------------------------------------------------------------+
Initialize Jacobian structure (Navier-Stokes). MG level: 0.
Initialize Jacobian structure (SA model).

------------------- Numerics Preprocessing ( Zone 0 ) -------------------

----------------- Integration Preprocessing ( Zone 0 ) ------------------

------------------- Iteration Preprocessing ( Zone 0 ) ------------------
Euler/Navier-Stokes/RANS fluid iteration.

------------------------------ Begin Solver -----------------------------

Simulation Run using the Single-zone Driver
+-------------------------+
|  Inner_Iter|      rms[P]|
+-------------------------+
|           0|   -3.466027|
|           1|   -3.573483|
|           2|   -3.590147|
|           3|   -3.602605|
|           4|   -3.612364|
|           5|   -3.620277|
|           6|   -3.626883|
|           7|   -3.632533|
|           8|   -3.637464|
|           9|   -3.641837|
|          10|   -3.645769|
|          11|   -3.649342|
|          12|   -3.652620|
|          13|   -3.655650|
|          14|   -3.658467|
|          15|   -3.661100|
|          16|   -3.663572|
|          17|   -3.665903|
|          18|   -3.668107|
|          19|   -3.670197|
|          20|   -3.672184|
|          21|   -3.674077|
|          22|   -3.675885|
|          23|   -3.677614|
|          24|   -3.679271|
|          25|   -3.680862|
|          26|   -3.682391|
|          27|   -3.683863|
|          28|   -3.685281|
|          29|   -3.686650|
|          30|   -3.687973|
|          31|   -3.689253|
|          32|   -3.690491|
|          33|   -3.691692|
|          34|   -3.692857|
|          35|   -3.693988|
|          36|   -3.695087|
|          37|   -3.696156|
|          38|   -3.697197|
|          39|   -3.698210|
|          40|   -3.699198|
|          41|   -3.700161|
|          42|   -3.701101|
|          43|   -3.702020|
|          44|   -3.702917|
|          45|   -3.703794|
|          46|   -3.704652|
|          47|   -3.705491|
|          48|   -3.706313|
|          49|   -3.707118|
|          50|   -3.707907|
|          51|   -3.708681|
|          52|   -3.709440|
|          53|   -3.710184|
|          54|   -3.710915|
|          55|   -3.711633|
|          56|   -3.712340|
|          57|   -3.713034|
|          58|   -3.713716|
|          59|   -3.714388|
|          60|   -3.715048|
|          61|   -3.715698|
|          62|   -3.716338|
|          63|   -3.716968|
|          64|   -3.717589|
|          65|   -3.718201|
|          66|   -3.718804|
|          67|   -3.719399|
|          68|   -3.719985|
|          69|   -3.720564|
|          70|   -3.721135|
|          71|   -3.721699|
|          72|   -3.722256|
|          73|   -3.722806|
|          74|   -3.723350|
|          75|   -3.723888|
|          76|   -3.724419|
|          77|   -3.724946|
|          78|   -3.725466|
|          79|   -3.725981|
|          80|   -3.726491|
|          81|   -3.726997|
|          82|   -3.727499|
|          83|   -3.727998|
|          84|   -3.728494|
|          85|   -3.728986|
|          86|   -3.729474|
|          87|   -3.729958|
|          88|   -3.730437|
|          89|   -3.730908|
|          90|   -3.731374|
|          91|   -3.731835|
|          92|   -3.732292|
|          93|   -3.732743|
|          94|   -3.733191|
|          95|   -3.733634|
|          96|   -3.734073|
|          97|   -3.734507|
|          98|   -3.734937|
|          99|   -3.735364|
|         100|   -3.735786|
+-----------------------------------------------------------------------+
|        File Writing Summary       |              Filename             |
+-----------------------------------------------------------------------+
|SU2 ASCII restart                  |restart.csv                        |
|Paraview Multiblock                |flow.vtm                           |
|Paraview Multiblock + iter         |flow_000100.vtm                    |
+-----------------------------------------------------------------------+
+-------------------------+
|  Inner_Iter|      rms[P]|
+-------------------------+
|         101|   -3.736205|
|         102|   -3.736620|
|         103|   -3.737032|
|         104|   -3.737441|
|         105|   -3.737847|
|         106|   -3.738250|
|         107|   -3.738652|
|         108|   -3.739050|
|         109|   -3.739447|
|         110|   -3.739841|
|         111|   -3.740233|
|         112|   -3.740623|
|         113|   -3.741011|
|         114|   -3.741397|
|         115|   -3.741782|
|         116|   -3.742164|
|         117|   -3.742544|
|         118|   -3.742922|
|         119|   -3.743299|
|         120|   -3.743673|
|         121|   -3.744045|
|         122|   -3.744415|
|         123|   -3.744783|
|         124|   -3.745150|
|         125|   -3.745514|
|         126|   -3.745876|
|         127|   -3.746234|
|         128|   -3.746590|
|         129|   -3.746944|
|         130|   -3.747326|
|         131|   -3.747721|
|         132|   -3.748111|
|         133|   -3.748498|
|         134|   -3.748882|
|         135|   -3.749264|
|         136|   -3.749645|
|         137|   -3.750025|
|         138|   -3.750403|
|         139|   -3.750781|
|         140|   -3.751158|
|         141|   -3.751535|
|         142|   -3.751911|
|         143|   -3.752286|
|         144|   -3.752662|
|         145|   -3.753037|
|         146|   -3.753411|
|         147|   -3.753786|
|         148|   -3.754161|
|         149|   -3.754536|
|         150|   -3.754911|
|         151|   -3.755286|
|         152|   -3.755662|
|         153|   -3.756037|
|         154|   -3.756413|
|         155|   -3.756789|
|         156|   -3.757165|
|         157|   -3.757542|
|         158|   -3.757920|
|         159|   -3.758298|
|         160|   -3.758677|
|         161|   -3.759056|
|         162|   -3.759437|
|         163|   -3.759818|
|         164|   -3.760200|
|         165|   -3.760584|
|         166|   -3.760968|
|         167|   -3.761354|
|         168|   -3.761742|
|         169|   -3.762131|
|         170|   -3.762522|
|         171|   -3.762914|
|         172|   -3.763309|
|         173|   -3.763707|
|         174|   -3.764106|
|         175|   -3.764508|
|         176|   -3.764913|
|         177|   -3.765321|
|         178|   -3.765732|
|         179|   -3.766146|
|         180|   -3.766563|
|         181|   -3.766983|
|         182|   -3.767407|
|         183|   -3.767834|
|         184|   -3.768264|
|         185|   -3.768697|
|         186|   -3.769132|
|         187|   -3.769568|
|         188|   -3.770006|
|         189|   -3.770443|
|         190|   -3.770881|
|         191|   -3.771319|
|         192|   -3.771756|
|         193|   -3.772192|
|         194|   -3.772627|
|         195|   -3.773062|
|         196|   -3.773495|
|         197|   -3.773927|
|         198|   -3.774358|
|         199|   -3.774790|
|         200|   -3.775249|
+-----------------------------------------------------------------------+
|        File Writing Summary       |              Filename             |
+-----------------------------------------------------------------------+
|SU2 ASCII restart                  |restart.csv                        |
|Paraview Multiblock                |flow.vtm                           |
|Paraview Multiblock + iter         |flow_000200.vtm                    |
+-----------------------------------------------------------------------+
+-------------------------+
|  Inner_Iter|      rms[P]|
+-------------------------+
|         201|   -3.775705|
|         202|   -3.776157|
|         203|   -3.776604|
|         204|   -3.777047|
|         205|   -3.777483|
|         206|   -3.777911|
|         207|   -3.778330|
|         208|   -3.778737|
|         209|   -3.779131|
|         210|   -3.779513|
|         211|   -3.779882|
|         212|   -3.780242|
|         213|   -3.780596|
|         214|   -3.780947|
|         215|   -3.781300|
|         216|   -3.781657|
|         217|   -3.782020|
|         218|   -3.782392|
|         219|   -3.782771|
|         220|   -3.783158|
|         221|   -3.783552|
|         222|   -3.783952|
|         223|   -3.784356|
|         224|   -3.784764|
|         225|   -3.785175|
|         226|   -3.785586|
|         227|   -3.785998|
|         228|   -3.786408|
|         229|   -3.786817|
|         230|   -3.787224|
|         231|   -3.787631|
|         232|   -3.788035|
|         233|   -3.788438|
|         234|   -3.788839|
|         235|   -3.789238|
|         236|   -3.789634|
|         237|   -3.790027|
|         238|   -3.790418|
|         239|   -3.790807|
|         240|   -3.791197|
|         241|   -3.791586|
|         242|   -3.791974|
|         243|   -3.792365|
|         244|   -3.792826|
|         245|   -3.793305|
|         246|   -3.793791|
|         247|   -3.794285|
|         248|   -3.794831|
|         249|   -3.795561|
|         250|   -3.796267|
|         251|   -3.796953|
|         252|   -3.797620|
|         253|   -3.798260|
|         254|   -3.798867|
|         255|   -3.799431|
|         256|   -3.799939|
|         257|   -3.800381|
|         258|   -3.800749|
|         259|   -3.801038|
|         260|   -3.801253|
|         261|   -3.801408|
|         262|   -3.801523|
|         263|   -3.801622|
|         264|   -3.801714|
|         265|   -3.801800|
|         266|   -3.801876|
|         267|   -3.801945|
|         268|   -3.802033|
|         269|   -3.802191|
|         270|   -3.802461|
|         271|   -3.803148|
|         272|   -3.804252|
|         273|   -3.805733|
|         274|   -3.806921|
|         275|   -3.807867|
|         276|   -3.808653|
|         277|   -3.809344|
|         278|   -3.809976|
|         279|   -3.810571|
|         280|   -3.811144|
|         281|   -3.811697|
|         282|   -3.812231|
|         283|   -3.812752|
|         284|   -3.813255|
|         285|   -3.813738|
|         286|   -3.814202|
|         287|   -3.814644|
|         288|   -3.815062|
|         289|   -3.815455|
|         290|   -3.815819|
|         291|   -3.816145|
|         292|   -3.816432|
|         293|   -3.816675|
|         294|   -3.816868|
|         295|   -3.817001|
|         296|   -3.817068|
|         297|   -3.817060|
|         298|   -3.816970|
|         299|   -3.816788|
|         300|   -3.816513|
+-----------------------------------------------------------------------+
|        File Writing Summary       |              Filename             |
+-----------------------------------------------------------------------+
|SU2 ASCII restart                  |restart.csv                        |
|Paraview Multiblock                |flow.vtm                           |
|Paraview Multiblock + iter         |flow_000300.vtm                    |
+-----------------------------------------------------------------------+
+-------------------------+
|  Inner_Iter|      rms[P]|
+-------------------------+
|         301|   -3.816148|
|         302|   -3.815707|
|         303|   -3.815223|
|         304|   -3.814755|
|         305|   -3.814341|
|         306|   -3.814228|
|         307|   -3.814554|
|         308|   -3.814785|
|         309|   -3.814939|
|         310|   -3.815555|
|         311|   -3.816353|
|         312|   -3.816900|
|         313|   -3.817290|
|         314|   -3.817578|
|         315|   -3.817784|
|         316|   -3.817917|
|         317|   -3.817983|
|         318|   -3.817977|
|         319|   -3.817897|
|         320|   -3.817746|
|         321|   -3.817524|
|         322|   -3.817227|
|         323|   -3.816847|
|         324|   -3.816414|
|         325|   -3.815926|
|         326|   -3.815382|
|         327|   -3.814784|
|         328|   -3.814133|
|         329|   -3.813440|
|         330|   -3.812731|
|         331|   -3.812047|
|         332|   -3.811390|
|         333|   -3.810964|
|         334|   -3.810805|
|         335|   -3.810568|
|         336|   -3.810695|
|         337|   -3.810822|
|         338|   -3.811005|
|         339|   -3.811195|
|         340|   -3.811335|
|         341|   -3.811432|
|         342|   -3.811991|
|         343|   -3.812508|
|         344|   -3.812859|
|         345|   -3.813104|
|         346|   -3.813269|
|         347|   -3.813365|
|         348|   -3.813397|
|         349|   -3.813368|
|         350|   -3.813289|
|         351|   -3.813223|
|         352|   -3.813195|
|         353|   -3.813440|
|         354|   -3.813570|
|         355|   -3.813592|
|         356|   -3.813578|
|         357|   -3.813515|
|         358|   -3.813396|
|         359|   -3.813208|
|         360|   -3.812951|
|         361|   -3.812631|
|         362|   -3.812264|
|         363|   -3.811884|
|         364|   -3.811480|
|         365|   -3.811509|
|         366|   -3.811749|
|         367|   -3.811906|
|         368|   -3.811972|
|         369|   -3.811981|
|         370|   -3.811935|
|         371|   -3.811844|
|         372|   -3.811721|
|         373|   -3.811549|
|         374|   -3.811277|
|         375|   -3.810912|
|         376|   -3.810479|
|         377|   -3.810123|
|         378|   -3.809852|
|         379|   -3.809545|
|         380|   -3.809473|
|         381|   -3.809328|
|         382|   -3.809074|
|         383|   -3.808754|
|         384|   -3.808405|
|         385|   -3.808044|
|         386|   -3.807704|
|         387|   -3.807644|
|         388|   -3.808356|
|         389|   -3.808988|
|         390|   -3.809366|
|         391|   -3.809593|
|         392|   -3.809862|
|         393|   -3.810244|
|         394|   -3.810530|
|         395|   -3.810694|
|         396|   -3.810787|
|         397|   -3.810834|
|         398|   -3.810829|
|         399|   -3.810754|
|         400|   -3.810608|
+-----------------------------------------------------------------------+
|        File Writing Summary       |              Filename             |
+-----------------------------------------------------------------------+
|SU2 ASCII restart                  |restart.csv                        |
|Paraview Multiblock                |flow.vtm                           |
|Paraview Multiblock + iter         |flow_000400.vtm                    |
+-----------------------------------------------------------------------+
+-------------------------+
|  Inner_Iter|      rms[P]|
+-------------------------+
|         401|   -3.810482|
|         402|   -3.810444|
|         403|   -3.810369|
|         404|   -3.810274|
|         405|   -3.810373|
|         406|   -3.810469|
|         407|   -3.810500|
|         408|   -3.810513|
|         409|   -3.811050|
|         410|   -3.811629|
|         411|   -3.811984|
|         412|   -3.812140|
|         413|   -3.812166|
|         414|   -3.812080|
|         415|   -3.811902|
|         416|   -3.811656|
|         417|   -3.811491|
|         418|   -3.811563|
|         419|   -3.811859|
|         420|   -3.812271|
|         421|   -3.812673|
|         422|   -3.813059|
|         423|   -3.813429|
|         424|   -3.813783|
|         425|   -3.814125|
|         426|   -3.814466|
|         427|   -3.814804|
|         428|   -3.815111|
|         429|   -3.815374|
|         430|   -3.815597|
|         431|   -3.815796|
|         432|   -3.815957|
|         433|   -3.816070|
|         434|   -3.816189|
|         435|   -3.816329|
|         436|   -3.816492|
|         437|   -3.816762|
|         438|   -3.817072|
|         439|   -3.817382|
|         440|   -3.817691|
|         441|   -3.818009|
|         442|   -3.818328|
|         443|   -3.818682|
|         444|   -3.819091|
|         445|   -3.819487|
|         446|   -3.819861|
|         447|   -3.820213|
|         448|   -3.820533|
|         449|   -3.820823|
|         450|   -3.821083|
|         451|   -3.821265|
|         452|   -3.821387|
|         453|   -3.821451|
|         454|   -3.821463|
|         455|   -3.821436|
|         456|   -3.821379|
|         457|   -3.821292|
|         458|   -3.821204|
|         459|   -3.821190|
|         460|   -3.821313|
|         461|   -3.821556|
|         462|   -3.821821|
|         463|   -3.822363|
|         464|   -3.823654|
|         465|   -3.824628|
|         466|   -3.825344|
|         467|   -3.825976|
|         468|   -3.826602|
|         469|   -3.827202|
|         470|   -3.827766|
|         471|   -3.828300|
|         472|   -3.828828|
|         473|   -3.829369|
|         474|   -3.829910|
|         475|   -3.830437|
|         476|   -3.830940|
|         477|   -3.831423|
|         478|   -3.831896|
|         479|   -3.832404|
|         480|   -3.832903|
|         481|   -3.833390|
|         482|   -3.833865|
|         483|   -3.834323|
|         484|   -3.834763|
|         485|   -3.835191|
|         486|   -3.835595|
|         487|   -3.835986|
|         488|   -3.836365|
|         489|   -3.836750|
|         490|   -3.837129|
|         491|   -3.837495|
|         492|   -3.837853|
|         493|   -3.838221|
|         494|   -3.838594|
|         495|   -3.838978|
|         496|   -3.839361|
|         497|   -3.839740|
|         498|   -3.840106|
|         499|   -3.840463|
|         500|   -3.840806|
+-----------------------------------------------------------------------+
|        File Writing Summary       |              Filename             |
+-----------------------------------------------------------------------+
|SU2 ASCII restart                  |restart.csv                        |
|Paraview Multiblock                |flow.vtm                           |
|Paraview Multiblock + iter         |flow_000500.vtm                    |
+-----------------------------------------------------------------------+
+-------------------------+
|  Inner_Iter|      rms[P]|
+-------------------------+
|         501|   -3.841206|
|         502|   -3.841630|
|         503|   -3.842087|
|         504|   -3.842542|
|         505|   -3.842990|
|         506|   -3.843428|
|         507|   -3.843856|
|         508|   -3.844264|
|         509|   -3.844658|
|         510|   -3.845039|
|         511|   -3.845418|
|         512|   -3.845777|
|         513|   -3.846119|
|         514|   -3.846435|
|         515|   -3.846725|
|         516|   -3.846974|
|         517|   -3.847175|
|         518|   -3.847318|
|         519|   -3.847413|
|         520|   -3.847462|
|         521|   -3.847474|
|         522|   -3.847457|
|         523|   -3.847445|
|         524|   -3.847509|
|         525|   -3.847767|
|         526|   -3.849230|
|         527|   -3.850130|
|         528|   -3.850793|
|         529|   -3.851349|
|         530|   -3.851831|
|         531|   -3.852265|
|         532|   -3.852667|
|         533|   -3.853063|
|         534|   -3.853434|
|         535|   -3.853787|
|         536|   -3.854119|
|         537|   -3.854440|
|         538|   -3.854751|
|         539|   -3.855049|
|         540|   -3.855336|
|         541|   -3.855612|
|         542|   -3.855871|
|         543|   -3.856113|
|         544|   -3.856335|
|         545|   -3.856531|
|         546|   -3.856727|
|         547|   -3.856907|
|         548|   -3.857072|
|         549|   -3.857489|
|         550|   -3.858487|
|         551|   -3.859220|
|         552|   -3.859785|
|         553|   -3.860250|
|         554|   -3.860663|
|         555|   -3.861026|
|         556|   -3.861376|
|         557|   -3.861699|
|         558|   -3.862257|
|         559|   -3.862891|
|         560|   -3.863450|
|         561|   -3.863958|
|         562|   -3.864449|
|         563|   -3.864996|
|         564|   -3.865551|
|         565|   -3.866106|
|         566|   -3.866674|
|         567|   -3.867253|
|         568|   -3.867836|
|         569|   -3.868419|
|         570|   -3.869007|
|         571|   -3.869594|
|         572|   -3.870189|
|         573|   -3.870793|
|         574|   -3.871401|
|         575|   -3.872020|
|         576|   -3.872639|
|         577|   -3.873264|
|         578|   -3.873893|
|         579|   -3.874526|
|         580|   -3.875160|
|         581|   -3.875793|
|         582|   -3.876437|
|         583|   -3.877086|
|         584|   -3.877739|
|         585|   -3.878388|
|         586|   -3.879038|
|         587|   -3.879695|
|         588|   -3.880360|
|         589|   -3.881037|
|         590|   -3.881723|
|         591|   -3.882427|
|         592|   -3.883153|
|         593|   -3.883886|
|         594|   -3.884623|
|         595|   -3.885360|
|         596|   -3.886091|
|         597|   -3.886821|
|         598|   -3.887543|
|         599|   -3.888261|
|         600|   -3.888968|
+-----------------------------------------------------------------------+
|        File Writing Summary       |              Filename             |
+-----------------------------------------------------------------------+
|SU2 ASCII restart                  |restart.csv                        |
|Paraview Multiblock                |flow.vtm                           |
|Paraview Multiblock + iter         |flow_000600.vtm                    |
+-----------------------------------------------------------------------+
+-------------------------+
|  Inner_Iter|      rms[P]|
+-------------------------+
|         601|   -3.889673|
|         602|   -3.890375|
|         603|   -3.891071|
|         604|   -3.891763|
|         605|   -3.892448|
|         606|   -3.893133|
|         607|   -3.893821|
|         608|   -3.894503|
|         609|   -3.895184|
|         610|   -3.895865|
|         611|   -3.896554|
|         612|   -3.897246|
|         613|   -3.897941|
|         614|   -3.898660|
|         615|   -3.899387|
|         616|   -3.900116|
|         617|   -3.900848|
|         618|   -3.901584|
|         619|   -3.902330|
|         620|   -3.903084|
|         621|   -3.903844|
|         622|   -3.904615|
|         623|   -3.905393|
|         624|   -3.906177|
|         625|   -3.906962|
|         626|   -3.907748|
|         627|   -3.908540|
|         628|   -3.909337|
|         629|   -3.910141|
|         630|   -3.910946|
|         631|   -3.911756|
|         632|   -3.912574|
|         633|   -3.913396|
|         634|   -3.914212|
|         635|   -3.915030|
|         636|   -3.915849|
|         637|   -3.916666|
|         638|   -3.917475|
|         639|   -3.918282|
|         640|   -3.919077|
|         641|   -3.919863|
|         642|   -3.920651|
|         643|   -3.921434|
|         644|   -3.922208|
|         645|   -3.922976|
|         646|   -3.923775|
|         647|   -3.924562|
|         648|   -3.925329|
|         649|   -3.926153|
|         650|   -3.926983|
|         651|   -3.927809|
|         652|   -3.928624|
|         653|   -3.929421|
|         654|   -3.930198|
|         655|   -3.930960|
|         656|   -3.931692|
|         657|   -3.932398|
|         658|   -3.933080|
|         659|   -3.933744|
|         660|   -3.934397|
|         661|   -3.935036|
|         662|   -3.935655|
|         663|   -3.936255|
|         664|   -3.936840|
|         665|   -3.937410|
|         666|   -3.937964|
|         667|   -3.938501|
|         668|   -3.939001|
|         669|   -3.939470|
|         670|   -3.939917|
|         671|   -3.940350|
|         672|   -3.940770|
|         673|   -3.941178|
|         674|   -3.941560|
|         675|   -3.941924|
|         676|   -3.942269|
|         677|   -3.942581|
|         678|   -3.942874|
|         679|   -3.943160|
|         680|   -3.943431|
|         681|   -3.943691|
|         682|   -3.943947|
|         683|   -3.944199|
|         684|   -3.944438|
|         685|   -3.944674|
|         686|   -3.944901|
|         687|   -3.945131|
|         688|   -3.945374|
|         689|   -3.945625|
|         690|   -3.945879|
|         691|   -3.946134|
|         692|   -3.946394|
|         693|   -3.946664|
|         694|   -3.946939|
|         695|   -3.947215|
|         696|   -3.947487|
|         697|   -3.947751|
|         698|   -3.948014|
|         699|   -3.948276|
|         700|   -3.948545|
+-----------------------------------------------------------------------+
|        File Writing Summary       |              Filename             |
+-----------------------------------------------------------------------+
|SU2 ASCII restart                  |restart.csv                        |
|Paraview Multiblock                |flow.vtm                           |
|Paraview Multiblock + iter         |flow_000700.vtm                    |
+-----------------------------------------------------------------------+
+-------------------------+
|  Inner_Iter|      rms[P]|
+-------------------------+
|         701|   -3.948831|
|         702|   -3.949134|
|         703|   -3.949448|
|         704|   -3.949773|
|         705|   -3.950091|
|         706|   -3.950420|
|         707|   -3.950752|
|         708|   -3.951086|
|         709|   -3.951424|
|         710|   -3.951763|
|         711|   -3.952088|
|         712|   -3.952410|
|         713|   -3.952742|
|         714|   -3.953090|
|         715|   -3.953446|
|         716|   -3.953794|
|         717|   -3.954139|
|         718|   -3.954490|
|         719|   -3.954849|
|         720|   -3.955205|
|         721|   -3.955566|
|         722|   -3.955912|
|         723|   -3.956252|
|         724|   -3.956592|
|         725|   -3.956934|
|         726|   -3.957280|
|         727|   -3.957637|
|         728|   -3.957997|
|         729|   -3.958360|
|         730|   -3.958735|
|         731|   -3.959169|
|         732|   -3.959628|
|         733|   -3.960085|
|         734|   -3.960551|
|         735|   -3.961042|
|         736|   -3.961546|
|         737|   -3.962059|
|         738|   -3.962570|
|         739|   -3.963102|
|         740|   -3.963647|
|         741|   -3.964192|
|         742|   -3.964746|
|         743|   -3.965296|
|         744|   -3.965863|
|         745|   -3.966432|
|         746|   -3.966997|
|         747|   -3.967556|
|         748|   -3.968104|
|         749|   -3.968645|
|         750|   -3.969197|
|         751|   -3.969756|
|         752|   -3.970317|
|         753|   -3.970878|
|         754|   -3.971422|
|         755|   -3.971943|
|         756|   -3.972453|
|         757|   -3.972950|
|         758|   -3.973441|
|         759|   -3.973921|
|         760|   -3.974461|
|         761|   -3.975045|
|         762|   -3.975636|
|         763|   -3.976234|
|         764|   -3.976794|
|         765|   -3.977358|
|         766|   -3.977941|
|         767|   -3.978516|
|         768|   -3.979085|
|         769|   -3.979640|
|         770|   -3.980173|
|         771|   -3.980691|
|         772|   -3.981189|
|         773|   -3.981653|
|         774|   -3.982113|
|         775|   -3.982587|
|         776|   -3.983061|
|         777|   -3.983529|
|         778|   -3.983995|
|         779|   -3.984446|
|         780|   -3.984882|
|         781|   -3.985303|
|         782|   -3.985714|
|         783|   -3.986101|
|         784|   -3.986467|
|         785|   -3.986793|
|         786|   -3.987100|
|         787|   -3.987402|
|         788|   -3.988526|
|         789|   -3.989599|
|         790|   -3.990619|
|         791|   -3.991588|
|         792|   -3.992519|
|         793|   -3.993423|
|         794|   -3.994288|
|         795|   -3.995105|
|         796|   -3.995876|
|         797|   -3.996604|
|         798|   -3.997300|
|         799|   -3.997965|
|         800|   -3.998597|
+-----------------------------------------------------------------------+
|        File Writing Summary       |              Filename             |
+-----------------------------------------------------------------------+
|SU2 ASCII restart                  |restart.csv                        |
|Paraview Multiblock                |flow.vtm                           |
|Paraview Multiblock + iter         |flow_000800.vtm                    |
+-----------------------------------------------------------------------+
+-------------------------+
|  Inner_Iter|      rms[P]|
+-------------------------+
|         801|   -3.999200|
|         802|   -3.999813|
|         803|   -4.000494|
|         804|   -4.001224|
|         805|   -4.001942|
|         806|   -4.002593|
|         807|   -4.003164|
|         808|   -4.003726|
|         809|   -4.004299|
|         810|   -4.004874|
|         811|   -4.005460|
|         812|   -4.006047|
|         813|   -4.006624|
|         814|   -4.007209|
|         815|   -4.007789|
|         816|   -4.008399|
|         817|   -4.009030|
|         818|   -4.009652|
|         819|   -4.010267|
|         820|   -4.010874|
|         821|   -4.011461|
|         822|   -4.012025|
|         823|   -4.012561|
|         824|   -4.013073|
|         825|   -4.013560|
|         826|   -4.014020|
|         827|   -4.014451|
|         828|   -4.014851|
|         829|   -4.015223|
|         830|   -4.015570|
|         831|   -4.015875|
|         832|   -4.016150|
|         833|   -4.016394|
|         834|   -4.016594|
|         835|   -4.016764|
|         836|   -4.016905|
|         837|   -4.017022|
|         838|   -4.017216|
|         839|   -4.018282|
|         840|   -4.019296|
|         841|   -4.020261|
|         842|   -4.021179|
|         843|   -4.022043|
|         844|   -4.022865|
|         845|   -4.023659|
|         846|   -4.024410|
|         847|   -4.025122|
|         848|   -4.025802|
|         849|   -4.026452|
|         850|   -4.027075|
|         851|   -4.027679|
|         852|   -4.028268|
|         853|   -4.028833|
|         854|   -4.029367|
|         855|   -4.029882|
|         856|   -4.030386|
|         857|   -4.030879|
|         858|   -4.031360|
|         859|   -4.031827|
|         860|   -4.032282|
|         861|   -4.032725|
|         862|   -4.033152|
|         863|   -4.033565|
|         864|   -4.033964|
|         865|   -4.034361|
|         866|   -4.034750|
|         867|   -4.035127|
|         868|   -4.035496|
|         869|   -4.035852|
|         870|   -4.036193|
|         871|   -4.036522|
|         872|   -4.036843|
|         873|   -4.037159|
|         874|   -4.037477|
|         875|   -4.037897|
|         876|   -4.038348|
|         877|   -4.038780|
|         878|   -4.039199|
|         879|   -4.039621|
|         880|   -4.040048|
|         881|   -4.040476|
|         882|   -4.040902|
|         883|   -4.041331|
|         884|   -4.041755|
|         885|   -4.042172|
|         886|   -4.042585|
|         887|   -4.043002|
|         888|   -4.043416|
|         889|   -4.043824|
|         890|   -4.044225|
|         891|   -4.044623|
|         892|   -4.045017|
|         893|   -4.045407|
|         894|   -4.045969|
|         895|   -4.046613|
|         896|   -4.047247|
|         897|   -4.047869|
|         898|   -4.048481|
|         899|   -4.049082|
|         900|   -4.049672|
+-----------------------------------------------------------------------+
|        File Writing Summary       |              Filename             |
+-----------------------------------------------------------------------+
|SU2 ASCII restart                  |restart.csv                        |
|Paraview Multiblock                |flow.vtm                           |
|Paraview Multiblock + iter         |flow_000900.vtm                    |
+-----------------------------------------------------------------------+
+-------------------------+
|  Inner_Iter|      rms[P]|
+-------------------------+
|         901|   -4.050251|
|         902|   -4.050820|
|         903|   -4.051380|
|         904|   -4.051932|
|         905|   -4.052477|
|         906|   -4.053016|
|         907|   -4.053549|
|         908|   -4.054075|
|         909|   -4.054594|
|         910|   -4.055104|
|         911|   -4.055609|
|         912|   -4.056111|
|         913|   -4.056610|
|         914|   -4.057105|
|         915|   -4.057598|
|         916|   -4.058085|
|         917|   -4.058568|
|         918|   -4.059047|
|         919|   -4.059521|
|         920|   -4.059992|
|         921|   -4.060457|
|         922|   -4.060920|
|         923|   -4.061380|
|         924|   -4.061836|
|         925|   -4.062289|
|         926|   -4.062739|
|         927|   -4.063186|
|         928|   -4.063628|
|         929|   -4.064069|
|         930|   -4.064508|
|         931|   -4.064945|
|         932|   -4.065377|
|         933|   -4.065805|
|         934|   -4.066236|
|         935|   -4.066671|
|         936|   -4.067108|
|         937|   -4.067545|
|         938|   -4.067980|
|         939|   -4.068413|
|         940|   -4.068915|
|         941|   -4.069433|
|         942|   -4.069967|
|         943|   -4.070498|
|         944|   -4.071024|
|         945|   -4.071546|
|         946|   -4.072063|
|         947|   -4.072575|
|         948|   -4.073085|
|         949|   -4.073592|
|         950|   -4.074096|
|         951|   -4.074599|
|         952|   -4.075098|
|         953|   -4.075597|
|         954|   -4.076098|
|         955|   -4.076599|
|         956|   -4.077096|
|         957|   -4.077592|
|         958|   -4.078087|
|         959|   -4.078581|
|         960|   -4.079075|
|         961|   -4.079569|
|         962|   -4.080060|
|         963|   -4.080550|
|         964|   -4.081040|
|         965|   -4.081530|
|         966|   -4.082019|
|         967|   -4.082508|
|         968|   -4.082998|
|         969|   -4.083487|
|         970|   -4.083979|
|         971|   -4.084471|
|         972|   -4.084964|
|         973|   -4.085457|
|         974|   -4.085949|
|         975|   -4.086443|
|         976|   -4.086936|
|         977|   -4.087433|
|         978|   -4.087935|
|         979|   -4.088436|
|         980|   -4.088936|
|         981|   -4.089437|
|         982|   -4.089937|
|         983|   -4.090430|
|         984|   -4.090923|
|         985|   -4.091416|
|         986|   -4.091909|
|         987|   -4.092402|
|         988|   -4.092895|
|         989|   -4.093390|
|         990|   -4.093886|
|         991|   -4.094380|
|         992|   -4.094871|
|         993|   -4.095364|
|         994|   -4.095860|
|         995|   -4.096357|
|         996|   -4.096856|
|         997|   -4.097356|
|         998|   -4.097857|
|         999|   -4.098357|
|        1000|   -4.098859|
+-----------------------------------------------------------------------+
|        File Writing Summary       |              Filename             |
+-----------------------------------------------------------------------+
|SU2 ASCII restart                  |restart.csv                        |
|Paraview Multiblock                |flow.vtm                           |
|Paraview Multiblock + iter         |flow_001000.vtm                    |
+-----------------------------------------------------------------------+
+-------------------------+
|  Inner_Iter|      rms[P]|
+-------------------------+
|        1001|   -4.099362|
|        1002|   -4.099864|
|        1003|   -4.100367|
|        1004|   -4.100869|
|        1005|   -4.101374|
|        1006|   -4.101878|
|        1007|   -4.102382|
|        1008|   -4.102888|
|        1009|   -4.103394|
|        1010|   -4.103899|
|        1011|   -4.104407|
|        1012|   -4.104913|
|        1013|   -4.105416|
|        1014|   -4.105910|
|        1015|   -4.106403|
|        1016|   -4.106893|
|        1017|   -4.107376|
|        1018|   -4.107858|
|        1019|   -4.108345|
|        1020|   -4.108829|
|        1021|   -4.109312|
|        1022|   -4.109793|
|        1023|   -4.110273|
|        1024|   -4.110753|
|        1025|   -4.111233|
|        1026|   -4.111713|
|        1027|   -4.112193|
|        1028|   -4.112674|
|        1029|   -4.113155|
|        1030|   -4.113636|
|        1031|   -4.114115|
|        1032|   -4.114597|
|        1033|   -4.115078|
|        1034|   -4.115560|
|        1035|   -4.116039|
|        1036|   -4.116519|
|        1037|   -4.117054|
|        1038|   -4.117590|
|        1039|   -4.118124|
|        1040|   -4.118651|
|        1041|   -4.119175|
|        1042|   -4.119696|
|        1043|   -4.120213|
|        1044|   -4.120727|
|        1045|   -4.121238|
|        1046|   -4.121749|
|        1047|   -4.122256|
|        1048|   -4.122763|
|        1049|   -4.123268|
|        1050|   -4.123772|
|        1051|   -4.124275|
|        1052|   -4.124775|
|        1053|   -4.125272|
|        1054|   -4.125767|
|        1055|   -4.126260|
|        1056|   -4.126754|
|        1057|   -4.127248|
|        1058|   -4.127739|
|        1059|   -4.128226|
|        1060|   -4.128709|
|        1061|   -4.129187|
|        1062|   -4.129661|
|        1063|   -4.130131|
|        1064|   -4.130597|
|        1065|   -4.131060|
|        1066|   -4.131520|
|        1067|   -4.131978|
|        1068|   -4.132434|
|        1069|   -4.132887|
|        1070|   -4.133338|
|        1071|   -4.133787|
|        1072|   -4.134234|
|        1073|   -4.134681|
|        1074|   -4.135125|
|        1075|   -4.135565|
|        1076|   -4.136003|
|        1077|   -4.136439|
|        1078|   -4.136873|
|        1079|   -4.137300|
|        1080|   -4.137724|
|        1081|   -4.138146|
|        1082|   -4.138567|
|        1083|   -4.138987|
|        1084|   -4.139407|
|        1085|   -4.139827|
|        1086|   -4.140245|
|        1087|   -4.140664|
|        1088|   -4.141087|
|        1089|   -4.141557|
|        1090|   -4.142067|
|        1091|   -4.142569|
|        1092|   -4.143065|
|        1093|   -4.143554|
|        1094|   -4.144039|
|        1095|   -4.144520|
|        1096|   -4.145000|
|        1097|   -4.145479|
|        1098|   -4.145954|
|        1099|   -4.146427|
|        1100|   -4.146898|
+-----------------------------------------------------------------------+
|        File Writing Summary       |              Filename             |
+-----------------------------------------------------------------------+
|SU2 ASCII restart                  |restart.csv                        |
|Paraview Multiblock                |flow.vtm                           |
|Paraview Multiblock + iter         |flow_001100.vtm                    |
+-----------------------------------------------------------------------+
+-------------------------+
|  Inner_Iter|      rms[P]|
+-------------------------+
|        1101|   -4.147369|
|        1102|   -4.147838|
|        1103|   -4.148305|
|        1104|   -4.148793|
|        1105|   -4.149277|
|        1106|   -4.149756|
|        1107|   -4.150230|
|        1108|   -4.150700|
|        1109|   -4.151166|
|        1110|   -4.151627|
|        1111|   -4.152084|
|        1112|   -4.152538|
|        1113|   -4.152987|
|        1114|   -4.153431|
|        1115|   -4.153871|
|        1116|   -4.154311|
|        1117|   -4.154748|
|        1118|   -4.155182|
|        1119|   -4.155615|
|        1120|   -4.156046|
|        1121|   -4.156477|
|        1122|   -4.156910|
|        1123|   -4.157342|
|        1124|   -4.157774|
|        1125|   -4.158203|
|        1126|   -4.158630|
|        1127|   -4.159054|
|        1128|   -4.159478|
|        1129|   -4.159902|
|        1130|   -4.160327|
|        1131|   -4.160780|
|        1132|   -4.161225|
|        1133|   -4.161665|
|        1134|   -4.162100|
|        1135|   -4.162531|
|        1136|   -4.162959|
|        1137|   -4.163382|
|        1138|   -4.163795|
|        1139|   -4.164202|
|        1140|   -4.164606|
|        1141|   -4.165148|
|        1142|   -4.165746|
|        1143|   -4.166350|
|        1144|   -4.166946|
|        1145|   -4.167529|
|        1146|   -4.168100|
|        1147|   -4.168661|
|        1148|   -4.169217|
|        1149|   -4.169770|
|        1150|   -4.170345|
|        1151|   -4.170924|
|        1152|   -4.171506|
|        1153|   -4.172087|
|        1154|   -4.172674|
|        1155|   -4.173265|
|        1156|   -4.173855|
|        1157|   -4.174442|
|        1158|   -4.175028|
|        1159|   -4.175616|
|        1160|   -4.176202|
|        1161|   -4.176786|
|        1162|   -4.177367|
|        1163|   -4.177946|
|        1164|   -4.178523|
|        1165|   -4.179103|
|        1166|   -4.179681|
|        1167|   -4.180257|
|        1168|   -4.180831|
|        1169|   -4.181405|
|        1170|   -4.181982|
|        1171|   -4.182559|
|        1172|   -4.183137|
|        1173|   -4.183714|
|        1174|   -4.184291|
|        1175|   -4.184868|
|        1176|   -4.185439|
|        1177|   -4.186006|
|        1178|   -4.186568|
|        1179|   -4.187123|
|        1180|   -4.187669|
|        1181|   -4.188209|
|        1182|   -4.188743|
|        1183|   -4.189264|
|        1184|   -4.189774|
|        1185|   -4.190272|
|        1186|   -4.190757|
|        1187|   -4.191231|
|        1188|   -4.191695|
|        1189|   -4.192150|
|        1190|   -4.192596|
|        1191|   -4.193036|
|        1192|   -4.193473|
|        1193|   -4.193906|
|        1194|   -4.194339|
|        1195|   -4.194773|
|        1196|   -4.195208|
|        1197|   -4.195647|
|        1198|   -4.196308|
|        1199|   -4.196994|
|        1200|   -4.197663|
+-----------------------------------------------------------------------+
|        File Writing Summary       |              Filename             |
+-----------------------------------------------------------------------+
|SU2 ASCII restart                  |restart.csv                        |
|Paraview Multiblock                |flow.vtm                           |
|Paraview Multiblock + iter         |flow_001200.vtm                    |
+-----------------------------------------------------------------------+
+-------------------------+
|  Inner_Iter|      rms[P]|
+-------------------------+
|        1201|   -4.198310|
|        1202|   -4.198938|
|        1203|   -4.199548|
|        1204|   -4.200137|
|        1205|   -4.200709|
|        1206|   -4.201277|
|        1207|   -4.201849|
|        1208|   -4.202505|
|        1209|   -4.203198|
|        1210|   -4.203895|
|        1211|   -4.204603|
|        1212|   -4.205301|
|        1213|   -4.206007|
|        1214|   -4.206704|
|        1215|   -4.207400|
|        1216|   -4.208092|
|        1217|   -4.208776|
|        1218|   -4.209456|
|        1219|   -4.210138|
|        1220|   -4.210815|
|        1221|   -4.211478|
|        1222|   -4.212124|
|        1223|   -4.212754|
|        1224|   -4.213369|
|        1225|   -4.213981|
|        1226|   -4.214576|
|        1227|   -4.215157|
|        1228|   -4.215722|
|        1229|   -4.216269|
|        1230|   -4.216805|
|        1231|   -4.217341|
|        1232|   -4.217864|
|        1233|   -4.218376|
|        1234|   -4.218879|
|        1235|   -4.219373|
|        1236|   -4.219863|
|        1237|   -4.220364|
|        1238|   -4.220866|
|        1239|   -4.221368|
|        1240|   -4.221878|
|        1241|   -4.222390|
|        1242|   -4.222900|
|        1243|   -4.223426|
|        1244|   -4.224142|
|        1245|   -4.224884|
|        1246|   -4.225618|
|        1247|   -4.226348|
|        1248|   -4.227075|
|        1249|   -4.227797|
|        1250|   -4.228518|
|        1251|   -4.229246|
|        1252|   -4.229968|
|        1253|   -4.230687|
|        1254|   -4.231411|
|        1255|   -4.232131|
|        1256|   -4.232845|
|        1257|   -4.233550|
|        1258|   -4.234255|
|        1259|   -4.234955|
|        1260|   -4.235650|
|        1261|   -4.236339|
|        1262|   -4.237018|
|        1263|   -4.237694|
|        1264|   -4.238369|
|        1265|   -4.239037|
|        1266|   -4.239698|
|        1267|   -4.240348|
|        1268|   -4.240993|
|        1269|   -4.241637|
|        1270|   -4.242277|
|        1271|   -4.242906|
|        1272|   -4.243520|
|        1273|   -4.244124|
|        1274|   -4.244718|
|        1275|   -4.245308|
|        1276|   -4.245892|
|        1277|   -4.246463|
|        1278|   -4.247028|
|        1279|   -4.247594|
|        1280|   -4.248153|
|        1281|   -4.248706|
|        1282|   -4.249248|
|        1283|   -4.249788|
|        1284|   -4.250347|
|        1285|   -4.250911|
|        1286|   -4.251480|
|        1287|   -4.252050|
|        1288|   -4.252619|
|        1289|   -4.253197|
|        1290|   -4.253781|
|        1291|   -4.254370|
|        1292|   -4.254960|
|        1293|   -4.255542|
|        1294|   -4.256107|
|        1295|   -4.256660|
|        1296|   -4.257202|
|        1297|   -4.257721|
|        1298|   -4.258226|
|        1299|   -4.258710|
|        1300|   -4.259171|
+-----------------------------------------------------------------------+
|        File Writing Summary       |              Filename             |
+-----------------------------------------------------------------------+
|SU2 ASCII restart                  |restart.csv                        |
|Paraview Multiblock                |flow.vtm                           |
|Paraview Multiblock + iter         |flow_001300.vtm                    |
+-----------------------------------------------------------------------+
+-------------------------+
|  Inner_Iter|      rms[P]|
+-------------------------+
|        1301|   -4.259614|
|        1302|   -4.260078|
|        1303|   -4.260509|
|        1304|   -4.260911|
|        1305|   -4.261275|
|        1306|   -4.261599|
|        1307|   -4.261891|
|        1308|   -4.262153|
|        1309|   -4.262383|
|        1310|   -4.262584|
|        1311|   -4.262755|
|        1312|   -4.262904|
|        1313|   -4.263036|
|        1314|   -4.263137|
|        1315|   -4.263215|
|        1316|   -4.263271|
|        1317|   -4.263305|
|        1318|   -4.263316|
|        1319|   -4.263307|
|        1320|   -4.263279|
|        1321|   -4.263231|
|        1322|   -4.263166|
|        1323|   -4.263085|
|        1324|   -4.262988|
|        1325|   -4.262877|
|        1326|   -4.262745|
|        1327|   -4.262607|
|        1328|   -4.262456|
|        1329|   -4.262308|
|        1330|   -4.262171|
|        1331|   -4.262024|
|        1332|   -4.261874|
|        1333|   -4.261717|
|        1334|   -4.261565|
|        1335|   -4.261403|
|        1336|   -4.261248|
|        1337|   -4.261087|
|        1338|   -4.260939|
|        1339|   -4.260786|
|        1340|   -4.260636|
|        1341|   -4.260483|
|        1342|   -4.260323|
|        1343|   -4.260161|
|        1344|   -4.259996|
|        1345|   -4.259820|
|        1346|   -4.259642|
|        1347|   -4.259460|
|        1348|   -4.259274|
|        1349|   -4.259083|
|        1350|   -4.258889|
|        1351|   -4.258696|
|        1352|   -4.258504|
|        1353|   -4.258304|
|        1354|   -4.258098|
|        1355|   -4.257887|
|        1356|   -4.257668|
|        1357|   -4.257440|
|        1358|   -4.257210|
|        1359|   -4.256984|
|        1360|   -4.256756|
|        1361|   -4.256525|
|        1362|   -4.256293|
|        1363|   -4.256063|
|        1364|   -4.255839|
|        1365|   -4.255619|
|        1366|   -4.255399|
|        1367|   -4.255178|
|        1368|   -4.254959|
|        1369|   -4.254745|
|        1370|   -4.254537|
|        1371|   -4.254330|
|        1372|   -4.254137|
|        1373|   -4.253957|
|        1374|   -4.253789|
|        1375|   -4.253675|
|        1376|   -4.253568|
|        1377|   -4.253472|
|        1378|   -4.253385|
|        1379|   -4.253317|
|        1380|   -4.253260|
|        1381|   -4.253216|
|        1382|   -4.253186|
|        1383|   -4.253177|
|        1384|   -4.253193|
|        1385|   -4.253238|
|        1386|   -4.253322|
|        1387|   -4.253439|
|        1388|   -4.253589|
|        1389|   -4.253760|
|        1390|   -4.253960|
|        1391|   -4.254179|
|        1392|   -4.254431|
|        1393|   -4.254703|
|        1394|   -4.255023|
|        1395|   -4.255408|
|        1396|   -4.255836|
|        1397|   -4.256297|
|        1398|   -4.256803|
|        1399|   -4.257352|
|        1400|   -4.257928|
+-----------------------------------------------------------------------+
|        File Writing Summary       |              Filename             |
+-----------------------------------------------------------------------+
|SU2 ASCII restart                  |restart.csv                        |
|Paraview Multiblock                |flow.vtm                           |
|Paraview Multiblock + iter         |flow_001400.vtm                    |
+-----------------------------------------------------------------------+
+-------------------------+
|  Inner_Iter|      rms[P]|
+-------------------------+
|        1401|   -4.258542|
|        1402|   -4.259188|
|        1403|   -4.259839|
|        1404|   -4.260500|
|        1405|   -4.261200|
|        1406|   -4.261920|
|        1407|   -4.262648|
|        1408|   -4.263375|
|        1409|   -4.264114|
|        1410|   -4.264875|
|        1411|   -4.265637|
|        1412|   -4.266391|
|        1413|   -4.267140|
|        1414|   -4.267890|
|        1415|   -4.268634|
|        1416|   -4.269367|
|        1417|   -4.270111|
|        1418|   -4.270845|
|        1419|   -4.271567|
|        1420|   -4.272278|
|        1421|   -4.272993|
|        1422|   -4.273721|
|        1423|   -4.274438|
|        1424|   -4.275147|
|        1425|   -4.275847|
|        1426|   -4.276540|
|        1427|   -4.277235|
|        1428|   -4.277933|
|        1429|   -4.278631|
|        1430|   -4.279331|
|        1431|   -4.280041|
|        1432|   -4.280765|
|        1433|   -4.281502|
|        1434|   -4.282252|
|        1435|   -4.283015|
|        1436|   -4.283790|
|        1437|   -4.284593|
|        1438|   -4.285405|
|        1439|   -4.286222|
|        1440|   -4.287043|
|        1441|   -4.287869|
|        1442|   -4.288710|
|        1443|   -4.289538|
|        1444|   -4.290351|
|        1445|   -4.291147|
|        1446|   -4.291933|
|        1447|   -4.292701|
|        1448|   -4.293443|
|        1449|   -4.294160|
|        1450|   -4.294849|
|        1451|   -4.295510|
|        1452|   -4.296142|
|        1453|   -4.296744|
|        1454|   -4.297315|
|        1455|   -4.297861|
|        1456|   -4.298375|
|        1457|   -4.298863|
|        1458|   -4.299326|
|        1459|   -4.299755|
|        1460|   -4.300155|
|        1461|   -4.300528|
|        1462|   -4.300879|
|        1463|   -4.301206|
|        1464|   -4.301508|
|        1465|   -4.301785|
|        1466|   -4.302040|
|        1467|   -4.302276|
|        1468|   -4.302497|
|        1469|   -4.302700|
|        1470|   -4.302887|
|        1471|   -4.303059|
|        1472|   -4.303220|
|        1473|   -4.303370|
|        1474|   -4.303511|
|        1475|   -4.303643|
|        1476|   -4.303767|
|        1477|   -4.303884|
|        1478|   -4.303992|
|        1479|   -4.304093|
|        1480|   -4.304190|
|        1481|   -4.304280|
|        1482|   -4.304367|
|        1483|   -4.304453|
|        1484|   -4.304534|
|        1485|   -4.304610|
|        1486|   -4.304684|
|        1487|   -4.304752|
|        1488|   -4.304815|
|        1489|   -4.304874|
|        1490|   -4.304929|
|        1491|   -4.304980|
|        1492|   -4.305026|
|        1493|   -4.305067|
|        1494|   -4.305104|
|        1495|   -4.305139|
|        1496|   -4.305171|
|        1497|   -4.305199|
|        1498|   -4.305226|
|        1499|   -4.305251|
|        1500|   -4.305274|
+-----------------------------------------------------------------------+
|        File Writing Summary       |              Filename             |
+-----------------------------------------------------------------------+
|SU2 ASCII restart                  |restart.csv                        |
|Paraview Multiblock                |flow.vtm                           |
|Paraview Multiblock + iter         |flow_001500.vtm                    |
+-----------------------------------------------------------------------+
+-------------------------+
|  Inner_Iter|      rms[P]|
+-------------------------+
|        1501|   -4.305296|
|        1502|   -4.305317|
|        1503|   -4.305337|
|        1504|   -4.305358|
|        1505|   -4.305378|
|        1506|   -4.305397|
|        1507|   -4.305418|
|        1508|   -4.305441|
|        1509|   -4.305469|
|        1510|   -4.305502|
|        1511|   -4.305539|
|        1512|   -4.305579|
|        1513|   -4.305622|
|        1514|   -4.305669|
|        1515|   -4.305720|
|        1516|   -4.305773|
|        1517|   -4.305829|
|        1518|   -4.305888|
|        1519|   -4.305947|
|        1520|   -4.306007|
|        1521|   -4.306067|
|        1522|   -4.306128|
|        1523|   -4.306190|
|        1524|   -4.306252|
|        1525|   -4.306314|
|        1526|   -4.306376|
|        1527|   -4.306438|
|        1528|   -4.306505|
|        1529|   -4.306577|
|        1530|   -4.306649|
|        1531|   -4.306718|
|        1532|   -4.306785|
|        1533|   -4.306848|
|        1534|   -4.306906|
|        1535|   -4.306961|
|        1536|   -4.307011|
|        1537|   -4.307057|
|        1538|   -4.307098|
|        1539|   -4.307133|
|        1540|   -4.307164|
|        1541|   -4.307190|
|        1542|   -4.307211|
|        1543|   -4.307226|
|        1544|   -4.307236|
|        1545|   -4.307241|
|        1546|   -4.307241|
|        1547|   -4.307235|
|        1548|   -4.307222|
|        1549|   -4.307205|
|        1550|   -4.307181|
|        1551|   -4.307151|
|        1552|   -4.307115|
|        1553|   -4.307074|
|        1554|   -4.307028|
|        1555|   -4.306978|
|        1556|   -4.306924|
|        1557|   -4.306867|
|        1558|   -4.306806|
|        1559|   -4.306751|
|        1560|   -4.306724|
|        1561|   -4.306692|
|        1562|   -4.306657|
|        1563|   -4.306620|
|        1564|   -4.306584|
|        1565|   -4.306551|
|        1566|   -4.306520|
|        1567|   -4.306488|
|        1568|   -4.306457|
|        1569|   -4.306428|
|        1570|   -4.306402|
|        1571|   -4.306380|
|        1572|   -4.306361|
|        1573|   -4.306345|
|        1574|   -4.306334|
|        1575|   -4.306327|
|        1576|   -4.306324|
|        1577|   -4.306326|
|        1578|   -4.306333|
|        1579|   -4.306344|
|        1580|   -4.306361|
|        1581|   -4.306381|
|        1582|   -4.306406|
|        1583|   -4.306436|
|        1584|   -4.306470|
|        1585|   -4.306508|
|        1586|   -4.306552|
|        1587|   -4.306601|
|        1588|   -4.306656|
|        1589|   -4.306716|
|        1590|   -4.306780|
|        1591|   -4.306850|
|        1592|   -4.306925|
|        1593|   -4.307010|
|        1594|   -4.307103|
|        1595|   -4.307200|
|        1596|   -4.307301|
|        1597|   -4.307406|
|        1598|   -4.307514|
|        1599|   -4.307625|
|        1600|   -4.307739|
+-----------------------------------------------------------------------+
|        File Writing Summary       |              Filename             |
+-----------------------------------------------------------------------+
|SU2 ASCII restart                  |restart.csv                        |
|Paraview Multiblock                |flow.vtm                           |
|Paraview Multiblock + iter         |flow_001600.vtm                    |
+-----------------------------------------------------------------------+
+-------------------------+
|  Inner_Iter|      rms[P]|
+-------------------------+
|        1601|   -4.307856|
|        1602|   -4.307974|
|        1603|   -4.308116|
|        1604|   -4.308284|
|        1605|   -4.308451|
|        1606|   -4.308617|
|        1607|   -4.308781|
|        1608|   -4.308945|
|        1609|   -4.309107|
|        1610|   -4.309268|
|        1611|   -4.309426|
|        1612|   -4.309580|
|        1613|   -4.309731|
|        1614|   -4.309879|
|        1615|   -4.310025|
|        1616|   -4.310167|
|        1617|   -4.310305|
|        1618|   -4.310439|
|        1619|   -4.310570|
|        1620|   -4.310697|
|        1621|   -4.310820|
|        1622|   -4.310938|
|        1623|   -4.311051|
|        1624|   -4.311160|
|        1625|   -4.311264|
|        1626|   -4.311362|
|        1627|   -4.311456|
|        1628|   -4.311545|
|        1629|   -4.311628|
|        1630|   -4.311707|
|        1631|   -4.311780|
|        1632|   -4.311847|
|        1633|   -4.311910|
|        1634|   -4.311967|
|        1635|   -4.312019|
|        1636|   -4.312066|
|        1637|   -4.312110|
|        1638|   -4.312152|
|        1639|   -4.312192|
|        1640|   -4.312227|
|        1641|   -4.312259|
|        1642|   -4.312287|
|        1643|   -4.312314|
|        1644|   -4.312338|
|        1645|   -4.312361|
|        1646|   -4.312381|
|        1647|   -4.312400|
|        1648|   -4.312417|
|        1649|   -4.312434|
|        1650|   -4.312450|
|        1651|   -4.312466|
|        1652|   -4.312482|
|        1653|   -4.312500|
|        1654|   -4.312518|
|        1655|   -4.312536|
|        1656|   -4.312555|
|        1657|   -4.312574|
|        1658|   -4.312595|
|        1659|   -4.312617|
|        1660|   -4.312641|
|        1661|   -4.312666|
|        1662|   -4.312693|
|        1663|   -4.312723|
|        1664|   -4.312755|
|        1665|   -4.312788|
|        1666|   -4.312824|
|        1667|   -4.312863|
|        1668|   -4.312904|
|        1669|   -4.312948|
|        1670|   -4.312992|
|        1671|   -4.313038|
|        1672|   -4.313086|
|        1673|   -4.313134|
|        1674|   -4.313183|
|        1675|   -4.313233|
|        1676|   -4.313284|
|        1677|   -4.313336|
|        1678|   -4.313388|
|        1679|   -4.313440|
|        1680|   -4.313493|
|        1681|   -4.313545|
|        1682|   -4.313597|
|        1683|   -4.313650|
|        1684|   -4.313701|
|        1685|   -4.313753|
|        1686|   -4.313804|
|        1687|   -4.313855|
|        1688|   -4.313905|
|        1689|   -4.313954|
|        1690|   -4.314001|
|        1691|   -4.314047|
|        1692|   -4.314091|
|        1693|   -4.314134|
|        1694|   -4.314174|
|        1695|   -4.314213|
|        1696|   -4.314250|
|        1697|   -4.314285|
|        1698|   -4.314319|
|        1699|   -4.314352|
|        1700|   -4.314384|
+-----------------------------------------------------------------------+
|        File Writing Summary       |              Filename             |
+-----------------------------------------------------------------------+
|SU2 ASCII restart                  |restart.csv                        |
|Paraview Multiblock                |flow.vtm                           |
|Paraview Multiblock + iter         |flow_001700.vtm                    |
+-----------------------------------------------------------------------+
+-------------------------+
|  Inner_Iter|      rms[P]|
+-------------------------+
|        1701|   -4.314414|
|        1702|   -4.314442|
|        1703|   -4.314468|
|        1704|   -4.314493|
|        1705|   -4.314517|
|        1706|   -4.314538|
|        1707|   -4.314558|
|        1708|   -4.314577|
|        1709|   -4.314594|
|        1710|   -4.314609|
|        1711|   -4.314624|
|        1712|   -4.314638|
|        1713|   -4.314656|
|        1714|   -4.314676|
|        1715|   -4.314702|
|        1716|   -4.314732|
|        1717|   -4.314768|
|        1718|   -4.314817|
|        1719|   -4.314869|
|        1720|   -4.314922|
|        1721|   -4.314973|
|        1722|   -4.315026|
|        1723|   -4.315079|
|        1724|   -4.315132|
|        1725|   -4.315185|
|        1726|   -4.315237|
|        1727|   -4.315289|
|        1728|   -4.315341|
|        1729|   -4.315393|
|        1730|   -4.315446|
|        1731|   -4.315499|
|        1732|   -4.315553|
|        1733|   -4.315607|
|        1734|   -4.315664|
|        1735|   -4.315728|
|        1736|   -4.315792|
|        1737|   -4.315854|
|        1738|   -4.315917|
|        1739|   -4.315979|
|        1740|   -4.316040|
|        1741|   -4.316102|
|        1742|   -4.316164|
|        1743|   -4.316226|
|        1744|   -4.316287|
|        1745|   -4.316347|
|        1746|   -4.316407|
|        1747|   -4.316466|
|        1748|   -4.316524|
|        1749|   -4.316582|
|        1750|   -4.316640|
|        1751|   -4.316697|
|        1752|   -4.316755|
|        1753|   -4.316814|
|        1754|   -4.316873|
|        1755|   -4.316933|
|        1756|   -4.316993|
|        1757|   -4.317053|
|        1758|   -4.317114|
|        1759|   -4.317176|
|        1760|   -4.317239|
|        1761|   -4.317302|
|        1762|   -4.317366|
|        1763|   -4.317430|
|        1764|   -4.317495|
|        1765|   -4.317562|
|        1766|   -4.317629|
|        1767|   -4.317697|
|        1768|   -4.317766|
|        1769|   -4.317835|
|        1770|   -4.317903|
|        1771|   -4.317972|
|        1772|   -4.318041|
|        1773|   -4.318112|
|        1774|   -4.318184|
|        1775|   -4.318256|
|        1776|   -4.318330|
|        1777|   -4.318404|
|        1778|   -4.318477|
|        1779|   -4.318551|
|        1780|   -4.318624|
|        1781|   -4.318695|
|        1782|   -4.318765|
|        1783|   -4.318842|
|        1784|   -4.318953|
|        1785|   -4.319061|
|        1786|   -4.319167|
|        1787|   -4.319272|
|        1788|   -4.319374|
|        1789|   -4.319474|
|        1790|   -4.319572|
|        1791|   -4.319669|
|        1792|   -4.319763|
|        1793|   -4.319856|
|        1794|   -4.319947|
|        1795|   -4.320037|
|        1796|   -4.320126|
|        1797|   -4.320213|
|        1798|   -4.320298|
|        1799|   -4.320383|
|        1800|   -4.320468|
+-----------------------------------------------------------------------+
|        File Writing Summary       |              Filename             |
+-----------------------------------------------------------------------+
|SU2 ASCII restart                  |restart.csv                        |
|Paraview Multiblock                |flow.vtm                           |
|Paraview Multiblock + iter         |flow_001800.vtm                    |
+-----------------------------------------------------------------------+
+-------------------------+
|  Inner_Iter|      rms[P]|
+-------------------------+
|        1801|   -4.320551|
|        1802|   -4.320634|
|        1803|   -4.320717|
|        1804|   -4.320814|
|        1805|   -4.320918|
|        1806|   -4.321025|
|        1807|   -4.321132|
|        1808|   -4.321241|
|        1809|   -4.321351|
|        1810|   -4.321463|
|        1811|   -4.321571|
|        1812|   -4.321678|
|        1813|   -4.321785|
|        1814|   -4.321890|
|        1815|   -4.321995|
|        1816|   -4.322099|
|        1817|   -4.322202|
|        1818|   -4.322306|
|        1819|   -4.322408|
|        1820|   -4.322511|
|        1821|   -4.322613|
|        1822|   -4.322715|
|        1823|   -4.322816|
|        1824|   -4.322917|
|        1825|   -4.323018|
|        1826|   -4.323158|
|        1827|   -4.323304|
|        1828|   -4.323448|
|        1829|   -4.323590|
|        1830|   -4.323733|
|        1831|   -4.323878|
|        1832|   -4.324023|
|        1833|   -4.324165|
|        1834|   -4.324306|
|        1835|   -4.324444|
|        1836|   -4.324581|
|        1837|   -4.324716|
|        1838|   -4.324850|
|        1839|   -4.324983|
|        1840|   -4.325113|
|        1841|   -4.325243|
|        1842|   -4.325372|
|        1843|   -4.325500|
|        1844|   -4.325626|
|        1845|   -4.325752|
|        1846|   -4.325877|
|        1847|   -4.326001|
|        1848|   -4.326123|
|        1849|   -4.326244|
|        1850|   -4.326364|
|        1851|   -4.326482|
|        1852|   -4.326600|
|        1853|   -4.326716|
|        1854|   -4.326831|
|        1855|   -4.326945|
|        1856|   -4.327058|
|        1857|   -4.327168|
|        1858|   -4.327278|
|        1859|   -4.327386|
|        1860|   -4.327493|
|        1861|   -4.327599|
|        1862|   -4.327704|
|        1863|   -4.327808|
|        1864|   -4.327912|
|        1865|   -4.328017|
|        1866|   -4.328121|
|        1867|   -4.328225|
|        1868|   -4.328327|
|        1869|   -4.328429|
|        1870|   -4.328529|
|        1871|   -4.328629|
|        1872|   -4.328728|
|        1873|   -4.328827|
|        1874|   -4.328926|
|        1875|   -4.329024|
|        1876|   -4.329121|
|        1877|   -4.329218|
|        1878|   -4.329315|
|        1879|   -4.329411|
|        1880|   -4.329507|
|        1881|   -4.329603|
|        1882|   -4.329699|
|        1883|   -4.329796|
|        1884|   -4.329892|
|        1885|   -4.329989|
|        1886|   -4.330086|
|        1887|   -4.330184|
|        1888|   -4.330281|
|        1889|   -4.330379|
|        1890|   -4.330477|
|        1891|   -4.330575|
|        1892|   -4.330672|
|        1893|   -4.330769|
|        1894|   -4.330866|
|        1895|   -4.330963|
|        1896|   -4.331059|
|        1897|   -4.331154|
|        1898|   -4.331249|
|        1899|   -4.331343|
|        1900|   -4.331437|
+-----------------------------------------------------------------------+
|        File Writing Summary       |              Filename             |
+-----------------------------------------------------------------------+
|SU2 ASCII restart                  |restart.csv                        |
|Paraview Multiblock                |flow.vtm                           |
|Paraview Multiblock + iter         |flow_001900.vtm                    |
+-----------------------------------------------------------------------+
+-------------------------+
|  Inner_Iter|      rms[P]|
+-------------------------+
|        1901|   -4.331531|
|        1902|   -4.331623|
|        1903|   -4.331716|
|        1904|   -4.331808|
|        1905|   -4.331899|
|        1906|   -4.331991|
|        1907|   -4.332081|
|        1908|   -4.332171|
|        1909|   -4.332260|
|        1910|   -4.332348|
|        1911|   -4.332436|
|        1912|   -4.332523|
|        1913|   -4.332610|
|        1914|   -4.332696|
|        1915|   -4.332784|
|        1916|   -4.332870|
|        1917|   -4.332955|
|        1918|   -4.333039|
|        1919|   -4.333122|
|        1920|   -4.333204|
|        1921|   -4.333285|
|        1922|   -4.333365|
|        1923|   -4.333444|
|        1924|   -4.333523|
|        1925|   -4.333599|
|        1926|   -4.333675|
|        1927|   -4.333749|
|        1928|   -4.333823|
|        1929|   -4.333895|
|        1930|   -4.333967|
|        1931|   -4.334039|
|        1932|   -4.334110|
|        1933|   -4.334181|
|        1934|   -4.334251|
|        1935|   -4.334321|
|        1936|   -4.334391|
|        1937|   -4.334460|
|        1938|   -4.334529|
|        1939|   -4.334598|
|        1940|   -4.334667|
|        1941|   -4.334735|
|        1942|   -4.334803|
|        1943|   -4.334873|
|        1944|   -4.334945|
|        1945|   -4.335019|
|        1946|   -4.335094|
|        1947|   -4.335167|
|        1948|   -4.335241|
|        1949|   -4.335313|
|        1950|   -4.335383|
|        1951|   -4.335452|
|        1952|   -4.335521|
|        1953|   -4.335588|
|        1954|   -4.335655|
|        1955|   -4.335719|
|        1956|   -4.335783|
|        1957|   -4.335847|
|        1958|   -4.335910|
|        1959|   -4.335970|
|        1960|   -4.336030|
|        1961|   -4.336088|
|        1962|   -4.336147|
|        1963|   -4.336204|
|        1964|   -4.336261|
|        1965|   -4.336317|
|        1966|   -4.336371|
|        1967|   -4.336425|
|        1968|   -4.336479|
|        1969|   -4.336532|
|        1970|   -4.336585|
|        1971|   -4.336637|
|        1972|   -4.336688|
|        1973|   -4.336738|
|        1974|   -4.336788|
|        1975|   -4.336838|
|        1976|   -4.336887|
|        1977|   -4.336937|
|        1978|   -4.336986|
|        1979|   -4.337036|
|        1980|   -4.337086|
|        1981|   -4.337137|
|        1982|   -4.337188|
|        1983|   -4.337239|
|        1984|   -4.337290|
|        1985|   -4.337341|
|        1986|   -4.337392|
|        1987|   -4.337442|
|        1988|   -4.337493|
|        1989|   -4.337543|
|        1990|   -4.337593|
|        1991|   -4.337643|
|        1992|   -4.337693|
|        1993|   -4.337743|
|        1994|   -4.337794|
|        1995|   -4.337844|
|        1996|   -4.337920|
|        1997|   -4.338013|
|        1998|   -4.338104|
|        1999|   -4.338193|
|        2000|   -4.338279|
[...]
|        9454|   -5.141159|
|        9455|   -5.141127|
|        9456|   -5.141095|
|        9457|   -5.141061|
|        9458|   -5.141027|
|        9459|   -5.140993|
|        9460|   -5.140958|
|        9461|   -5.140923|
|        9462|   -5.140887|
|        9463|   -5.140850|
|        9464|   -5.140813|
|        9465|   -5.140776|
|        9466|   -5.140738|
|        9467|   -5.140699|
|        9468|   -5.140660|
|        9469|   -5.140620|
|        9470|   -5.140579|
|        9471|   -5.140538|
|        9472|   -5.140497|
|        9473|   -5.140455|
|        9474|   -5.140413|
|        9475|   -5.140371|
|        9476|   -5.140328|
|        9477|   -5.140284|
|        9478|   -5.140240|
|        9479|   -5.140195|
|        9480|   -5.140150|
|        9481|   -5.140104|
|        9482|   -5.140057|
|        9483|   -5.140011|
|        9484|   -5.139964|
|        9485|   -5.139916|
|        9486|   -5.139869|
|        9487|   -5.139820|
|        9488|   -5.139772|
|        9489|   -5.139723|
|        9490|   -5.139673|
|        9491|   -5.139623|
|        9492|   -5.139572|
|        9493|   -5.139521|
|        9494|   -5.139470|
|        9495|   -5.139418|
|        9496|   -5.139366|
|        9497|   -5.139313|
|        9498|   -5.139260|
|        9499|   -5.139206|
|        9500|   -5.139152|
+-----------------------------------------------------------------------+
|        File Writing Summary       |              Filename             |
+-----------------------------------------------------------------------+
|SU2 ASCII restart                  |restart.csv                        |
|Paraview Multiblock                |flow.vtm                           |
|Paraview Multiblock + iter         |flow_009500.vtm                    |
+-----------------------------------------------------------------------+
+-------------------------+
|  Inner_Iter|      rms[P]|
+-------------------------+
|        9501|   -5.139097|
|        9502|   -5.139041|
|        9503|   -5.138986|
|        9504|   -5.138930|
|        9505|   -5.138874|
|        9506|   -5.138818|
|        9507|   -5.138761|
|        9508|   -5.138703|
|        9509|   -5.138646|
|        9510|   -5.138587|
|        9511|   -5.138529|
|        9512|   -5.138470|
|        9513|   -5.138410|
|        9514|   -5.138350|
|        9515|   -5.138290|
|        9516|   -5.138229|
|        9517|   -5.138168|
|        9518|   -5.138106|
|        9519|   -5.138044|
|        9520|   -5.137982|
|        9521|   -5.137919|
|        9522|   -5.137855|
|        9523|   -5.137792|
|        9524|   -5.137728|
|        9525|   -5.137663|
|        9526|   -5.137598|
|        9527|   -5.137533|
|        9528|   -5.137468|
|        9529|   -5.137402|
|        9530|   -5.137335|
|        9531|   -5.137268|
|        9532|   -5.137202|
|        9533|   -5.137134|
|        9534|   -5.137067|
|        9535|   -5.136998|
|        9536|   -5.136930|
|        9537|   -5.136861|
|        9538|   -5.136791|
|        9539|   -5.136721|
|        9540|   -5.136651|
|        9541|   -5.136580|
|        9542|   -5.136509|
|        9543|   -5.136438|
|        9544|   -5.136366|
|        9545|   -5.136294|
|        9546|   -5.136222|
|        9547|   -5.136150|
|        9548|   -5.136077|
|        9549|   -5.136005|
|        9550|   -5.135932|
|        9551|   -5.135859|
|        9552|   -5.135786|
|        9553|   -5.135713|
|        9554|   -5.135640|
|        9555|   -5.135566|
|        9556|   -5.135492|
|        9557|   -5.135418|
|        9558|   -5.135343|
|        9559|   -5.135268|
|        9560|   -5.135192|
|        9561|   -5.135117|
|        9562|   -5.135041|
|        9563|   -5.134964|
|        9564|   -5.134888|
|        9565|   -5.134811|
|        9566|   -5.134734|
|        9567|   -5.134657|
|        9568|   -5.134579|
|        9569|   -5.134502|
|        9570|   -5.134424|
|        9571|   -5.134346|
|        9572|   -5.134268|
|        9573|   -5.134190|
|        9574|   -5.134112|
|        9575|   -5.134034|
|        9576|   -5.133955|
|        9577|   -5.133876|
|        9578|   -5.133797|
|        9579|   -5.133717|
|        9580|   -5.133637|
|        9581|   -5.133557|
|        9582|   -5.133477|
|        9583|   -5.133396|
|        9584|   -5.133315|
|        9585|   -5.133234|
|        9586|   -5.133152|
|        9587|   -5.133070|
|        9588|   -5.132988|
|        9589|   -5.132905|
|        9590|   -5.132823|
|        9591|   -5.132740|
|        9592|   -5.132656|
|        9593|   -5.132573|
|        9594|   -5.132489|
|        9595|   -5.132406|
|        9596|   -5.132322|
|        9597|   -5.132238|
|        9598|   -5.132153|
|        9599|   -5.132069|
|        9600|   -5.131984|
+-----------------------------------------------------------------------+
|        File Writing Summary       |              Filename             |
+-----------------------------------------------------------------------+
|SU2 ASCII restart                  |restart.csv                        |
|Paraview Multiblock                |flow.vtm                           |
|Paraview Multiblock + iter         |flow_009600.vtm                    |
+-----------------------------------------------------------------------+
+-------------------------+
|  Inner_Iter|      rms[P]|
+-------------------------+
|        9601|   -5.131899|
|        9602|   -5.131814|
|        9603|   -5.131728|
|        9604|   -5.131642|
|        9605|   -5.131557|
|        9606|   -5.131471|
|        9607|   -5.131385|
|        9608|   -5.131298|
|        9609|   -5.131211|
|        9610|   -5.131124|
|        9611|   -5.131036|
|        9612|   -5.130949|
|        9613|   -5.130861|
|        9614|   -5.130774|
|        9615|   -5.130686|
|        9616|   -5.130599|
|        9617|   -5.130511|
|        9618|   -5.130423|
|        9619|   -5.130334|
|        9620|   -5.130246|
|        9621|   -5.130158|
|        9622|   -5.130070|
|        9623|   -5.129982|
|        9624|   -5.129893|
|        9625|   -5.129805|
|        9626|   -5.129716|
|        9627|   -5.129627|
|        9628|   -5.129538|
|        9629|   -5.129449|
|        9630|   -5.129359|
|        9631|   -5.129270|
|        9632|   -5.129181|
|        9633|   -5.129092|
|        9634|   -5.129002|
|        9635|   -5.128913|
|        9636|   -5.128824|
|        9637|   -5.128734|
|        9638|   -5.128645|
|        9639|   -5.128555|
|        9640|   -5.128465|
|        9641|   -5.128375|
|        9642|   -5.128285|
|        9643|   -5.128195|
|        9644|   -5.128105|
|        9645|   -5.128015|
|        9646|   -5.127924|
|        9647|   -5.127834|
|        9648|   -5.127743|
|        9649|   -5.127653|
|        9650|   -5.127562|
|        9651|   -5.127471|
|        9652|   -5.127380|
|        9653|   -5.127289|
|        9654|   -5.127198|
|        9655|   -5.127107|
|        9656|   -5.127016|
|        9657|   -5.126924|
|        9658|   -5.126833|
|        9659|   -5.126741|
|        9660|   -5.126650|
|        9661|   -5.126558|
|        9662|   -5.126466|
|        9663|   -5.126375|
|        9664|   -5.126284|
|        9665|   -5.126193|
|        9666|   -5.126102|
|        9667|   -5.126010|
|        9668|   -5.125919|
|        9669|   -5.125828|
|        9670|   -5.125737|
|        9671|   -5.125647|
|        9672|   -5.125556|
|        9673|   -5.125465|
|        9674|   -5.125374|
|        9675|   -5.125283|
|        9676|   -5.125192|
|        9677|   -5.125102|
|        9678|   -5.125011|
|        9679|   -5.124921|
|        9680|   -5.124830|
|        9681|   -5.124740|
|        9682|   -5.124650|
|        9683|   -5.124560|
|        9684|   -5.124469|
|        9685|   -5.124379|
|        9686|   -5.124288|
|        9687|   -5.124198|
|        9688|   -5.124107|
|        9689|   -5.124017|
|        9690|   -5.123926|
|        9691|   -5.123835|
|        9692|   -5.123745|
|        9693|   -5.123655|
|        9694|   -5.123565|
|        9695|   -5.123475|
|        9696|   -5.123385|
|        9697|   -5.123296|
|        9698|   -5.123206|
|        9699|   -5.123116|
|        9700|   -5.123026|
+-----------------------------------------------------------------------+
|        File Writing Summary       |              Filename             |
+-----------------------------------------------------------------------+
|SU2 ASCII restart                  |restart.csv                        |
|Paraview Multiblock                |flow.vtm                           |
|Paraview Multiblock + iter         |flow_009700.vtm                    |
+-----------------------------------------------------------------------+
+-------------------------+
|  Inner_Iter|      rms[P]|
+-------------------------+
|        9701|   -5.122936|
|        9702|   -5.122847|
|        9703|   -5.122757|
|        9704|   -5.122667|
|        9705|   -5.122577|
|        9706|   -5.122488|
|        9707|   -5.122398|
|        9708|   -5.122309|
|        9709|   -5.122219|
|        9710|   -5.122130|
|        9711|   -5.122040|
|        9712|   -5.121951|
|        9713|   -5.121862|
|        9714|   -5.121772|
|        9715|   -5.121683|
|        9716|   -5.121594|
|        9717|   -5.121505|
|        9718|   -5.121415|
|        9719|   -5.121326|
|        9720|   -5.121237|
|        9721|   -5.121148|
|        9722|   -5.121059|
|        9723|   -5.120970|
|        9724|   -5.120881|
|        9725|   -5.120793|
|        9726|   -5.120704|
|        9727|   -5.120616|
|        9728|   -5.120527|
|        9729|   -5.120439|
|        9730|   -5.120351|
|        9731|   -5.120263|
|        9732|   -5.120175|
|        9733|   -5.120087|
|        9734|   -5.120000|
|        9735|   -5.119913|
|        9736|   -5.119826|
|        9737|   -5.119740|
|        9738|   -5.119653|
|        9739|   -5.119566|
|        9740|   -5.119480|
|        9741|   -5.119393|
|        9742|   -5.119307|
|        9743|   -5.119221|
|        9744|   -5.119135|
|        9745|   -5.119049|
|        9746|   -5.118963|
|        9747|   -5.118877|
|        9748|   -5.118791|
|        9749|   -5.118706|
|        9750|   -5.118620|
|        9751|   -5.118534|
|        9752|   -5.118449|
|        9753|   -5.118364|
|        9754|   -5.118279|
|        9755|   -5.118194|
|        9756|   -5.118109|
|        9757|   -5.118025|
|        9758|   -5.117940|
|        9759|   -5.117856|
|        9760|   -5.117772|
|        9761|   -5.117689|
|        9762|   -5.117605|
|        9763|   -5.117522|
|        9764|   -5.117438|
|        9765|   -5.117355|
|        9766|   -5.117272|
|        9767|   -5.117190|
|        9768|   -5.117107|
|        9769|   -5.117025|
|        9770|   -5.116943|
|        9771|   -5.116860|
|        9772|   -5.116779|
|        9773|   -5.116697|
|        9774|   -5.116615|
|        9775|   -5.116534|
|        9776|   -5.116453|
|        9777|   -5.116372|
|        9778|   -5.116291|
|        9779|   -5.116211|
|        9780|   -5.116131|
|        9781|   -5.116052|
|        9782|   -5.115972|
|        9783|   -5.115892|
|        9784|   -5.115813|
|        9785|   -5.115735|
|        9786|   -5.115656|
|        9787|   -5.115578|
|        9788|   -5.115500|
|        9789|   -5.115422|
|        9790|   -5.115345|
|        9791|   -5.115268|
|        9792|   -5.115192|
|        9793|   -5.115115|
|        9794|   -5.115039|
|        9795|   -5.114963|
|        9796|   -5.114887|
|        9797|   -5.114812|
|        9798|   -5.114737|
|        9799|   -5.114662|
|        9800|   -5.114588|
+-----------------------------------------------------------------------+
|        File Writing Summary       |              Filename             |
+-----------------------------------------------------------------------+
|SU2 ASCII restart                  |restart.csv                        |
|Paraview Multiblock                |flow.vtm                           |
|Paraview Multiblock + iter         |flow_009800.vtm                    |
+-----------------------------------------------------------------------+
+-------------------------+
|  Inner_Iter|      rms[P]|
+-------------------------+
|        9801|   -5.114513|
|        9802|   -5.114439|
|        9803|   -5.114366|
|        9804|   -5.114292|
|        9805|   -5.114218|
|        9806|   -5.114145|
|        9807|   -5.114072|
|        9808|   -5.113999|
|        9809|   -5.113927|
|        9810|   -5.113855|
|        9811|   -5.113782|
|        9812|   -5.113711|
|        9813|   -5.113639|
|        9814|   -5.113568|
|        9815|   -5.113497|
|        9816|   -5.113426|
|        9817|   -5.113355|
|        9818|   -5.113285|
|        9819|   -5.113216|
|        9820|   -5.113146|
|        9821|   -5.113077|
|        9822|   -5.113008|
|        9823|   -5.112940|
|        9824|   -5.112872|
|        9825|   -5.112804|
|        9826|   -5.112736|
|        9827|   -5.112669|
|        9828|   -5.112601|
|        9829|   -5.112535|
|        9830|   -5.112469|
|        9831|   -5.112403|
|        9832|   -5.112337|
|        9833|   -5.112271|
|        9834|   -5.112206|
|        9835|   -5.112142|
|        9836|   -5.112078|
|        9837|   -5.112014|
|        9838|   -5.111950|
|        9839|   -5.111887|
|        9840|   -5.111824|
|        9841|   -5.111761|
|        9842|   -5.111699|
|        9843|   -5.111637|
|        9844|   -5.111575|
|        9845|   -5.111514|
|        9846|   -5.111453|
|        9847|   -5.111393|
|        9848|   -5.111333|
|        9849|   -5.111273|
|        9850|   -5.111213|
|        9851|   -5.111154|
|        9852|   -5.111095|
|        9853|   -5.111037|
|        9854|   -5.110979|
|        9855|   -5.110922|
|        9856|   -5.110865|
|        9857|   -5.110808|
|        9858|   -5.110751|
|        9859|   -5.110695|
|        9860|   -5.110639|
|        9861|   -5.110585|
|        9862|   -5.110531|
|        9863|   -5.110477|
|        9864|   -5.110424|
|        9865|   -5.110371|
|        9866|   -5.110318|
|        9867|   -5.110267|
|        9868|   -5.110216|
|        9869|   -5.110165|
|        9870|   -5.110115|
|        9871|   -5.110065|
|        9872|   -5.110015|
|        9873|   -5.109966|
|        9874|   -5.109917|
|        9875|   -5.109868|
|        9876|   -5.109820|
|        9877|   -5.109772|
|        9878|   -5.109724|
|        9879|   -5.109677|
|        9880|   -5.109630|
|        9881|   -5.109583|
|        9882|   -5.109537|
|        9883|   -5.109492|
|        9884|   -5.109447|
|        9885|   -5.109402|
|        9886|   -5.109358|
|        9887|   -5.109314|
|        9888|   -5.109270|
|        9889|   -5.109227|
|        9890|   -5.109185|
|        9891|   -5.109143|
|        9892|   -5.109101|
|        9893|   -5.109059|
|        9894|   -5.109018|
|        9895|   -5.108978|
|        9896|   -5.108938|
|        9897|   -5.108899|
|        9898|   -5.108860|
|        9899|   -5.108822|
|        9900|   -5.108784|
+-----------------------------------------------------------------------+
|        File Writing Summary       |              Filename             |
+-----------------------------------------------------------------------+
|SU2 ASCII restart                  |restart.csv                        |
|Paraview Multiblock                |flow.vtm                           |
|Paraview Multiblock + iter         |flow_009900.vtm                    |
+-----------------------------------------------------------------------+
+-------------------------+
|  Inner_Iter|      rms[P]|
+-------------------------+
|        9901|   -5.108746|
|        9902|   -5.108709|
|        9903|   -5.108672|
|        9904|   -5.108636|
|        9905|   -5.108600|
|        9906|   -5.108565|
|        9907|   -5.108530|
|        9908|   -5.108495|
|        9909|   -5.108460|
|        9910|   -5.108426|
|        9911|   -5.108393|
|        9912|   -5.108359|
|        9913|   -5.108326|
|        9914|   -5.108294|
|        9915|   -5.108262|
|        9916|   -5.108230|
|        9917|   -5.108199|
|        9918|   -5.108168|
|        9919|   -5.108139|
|        9920|   -5.108109|
|        9921|   -5.108080|
|        9922|   -5.108051|
|        9923|   -5.108023|
|        9924|   -5.107995|
|        9925|   -5.107968|
|        9926|   -5.107941|
|        9927|   -5.107915|
|        9928|   -5.107889|
|        9929|   -5.107864|
|        9930|   -5.107839|
|        9931|   -5.107815|
|        9932|   -5.107791|
|        9933|   -5.107767|
|        9934|   -5.107744|
|        9935|   -5.107721|
|        9936|   -5.107699|
|        9937|   -5.107677|
|        9938|   -5.107655|
|        9939|   -5.107634|
|        9940|   -5.107613|
|        9941|   -5.107592|
|        9942|   -5.107572|
|        9943|   -5.107553|
|        9944|   -5.107533|
|        9945|   -5.107515|
|        9946|   -5.107497|
|        9947|   -5.107479|
|        9948|   -5.107462|
|        9949|   -5.107446|
|        9950|   -5.107430|
|        9951|   -5.107415|
|        9952|   -5.107401|
|        9953|   -5.107386|
|        9954|   -5.107373|
|        9955|   -5.107360|
|        9956|   -5.107347|
|        9957|   -5.107335|
|        9958|   -5.107323|
|        9959|   -5.107312|
|        9960|   -5.107301|
|        9961|   -5.107291|
|        9962|   -5.107281|
|        9963|   -5.107271|
|        9964|   -5.107262|
|        9965|   -5.107253|
|        9966|   -5.107245|
|        9967|   -5.107237|
|        9968|   -5.107229|
|        9969|   -5.107222|
|        9970|   -5.107215|
|        9971|   -5.107209|
|        9972|   -5.107203|
|        9973|   -5.107198|
|        9974|   -5.107193|
|        9975|   -5.107188|
|        9976|   -5.107185|
|        9977|   -5.107182|
|        9978|   -5.107179|
|        9979|   -5.107177|
|        9980|   -5.107175|
|        9981|   -5.107174|
|        9982|   -5.107174|
|        9983|   -5.107173|
|        9984|   -5.107173|
|        9985|   -5.107174|
|        9986|   -5.107175|
|        9987|   -5.107177|
|        9988|   -5.107179|
|        9989|   -5.107181|
|        9990|   -5.107184|
|        9991|   -5.107188|
|        9992|   -5.107192|
|        9993|   -5.107196|
|        9994|   -5.107201|
|        9995|   -5.107207|
|        9996|   -5.107213|
|        9997|   -5.107220|
|        9998|   -5.107227|
|        9999|   -5.107234|

----------------------------- Solver Exit -------------------------------

Maximum number of iterations reached (ITER = 10000) before convergence.
+-----------------------------------------------------------------------+
|      Convergence Field     |     Value    |   Criterion  |  Converged |
+-----------------------------------------------------------------------+
|                      rms[P]|      -5.10723|         < -12|          No|
+-----------------------------------------------------------------------+
-------------------------------------------------------------------------
+-----------------------------------------------------------------------+
|        File Writing Summary       |              Filename             |
+-----------------------------------------------------------------------+
|SU2 ASCII restart                  |restart.csv                        |
|Paraview Multiblock                |flow.vtm                           |
|Paraview Multiblock + iter         |flow_009999.vtm                    |
+-----------------------------------------------------------------------+

--------------------------- Finalizing Solver ---------------------------
Deleted CNumerics container.
Deleted CIntegration container.
Deleted CSolver container.
Deleted CIteration container.
Deleted CInterface container.
Deleted CGeometry container.
Deleted CFreeFormDefBox class.
Deleted CSurfaceMovement class.
Deleted CVolumetricMovement class.
Deleted CConfig container.
Deleted nInst container.
Deleted COutput class.
-------------------------------------------------------------------------

------------------------- Exit Success (SU2_CFD) ------------------------

