
-------------------------------------------------------------------------
|    ___ _   _ ___                                                      |
|   / __| | | |_  )   Release 8.0.1 "Harrier"                           |
|   \__ \ |_| |/ /                                                      |
|   |___/\___//___|   Suite (Computational Fluid Dynamics Code)         |
|                                                                       |
-------------------------------------------------------------------------
| SU2 Project Website: https://su2code.github.io                        |
|                                                                       |
| The SU2 Project is maintained by the SU2 Foundation                   |
| (http://su2foundation.org)                                            |
-------------------------------------------------------------------------
| Copyright 2012-2024, SU2 Contributors                                 |
|                                                                       |
| SU2 is free software; you can redistribute it and/or                  |
| modify it under the terms of the GNU Lesser General Public            |
| License as published by the Free Software Foundation; either          |
| version 2.1 of the License, or (at your option) any later version.    |
|                                                                       |
| SU2 is distributed in the hope that it will be useful,                |
| but WITHOUT ANY WARRANTY; without even the implied warranty of        |
| MERCHANTABILITY or FITNESS FOR A PARTICULAR PURPOSE. See the GNU      |
| Lesser General Public License for more details.                       |
|                                                                       |
| You should have received a copy of the GNU Lesser General Public      |
| License along with SU2. If not, see <http://www.gnu.org/licenses/>.   |
-------------------------------------------------------------------------

Parsing config file for zone 0

----------------- Physical Case Definition ( Zone 0 ) -------------------
Incompressible RANS equations.
Turbulence model: Negative-Spalart-Allmaras
Hybrid RANS/LES: No Hybrid RANS/LES
Reading and writing ASCII SU2 native restart files.
Read flow solution from: restart.
Dimensional simulation.
The reference area is 1 m^2.
The semi-span will be computed using the max y(3D) value.
The reference length is 1 m.
Input mesh file name: mesh.su2

--------------- Space Numerical Integration ( Zone 0 ) ------------------
Flux difference splitting (FDS) upwind scheme for the flow inviscid terms.
Second order integration in space, with slope limiter.
Venkatakrishnan slope-limiting method, with constant: 0.05.
The reference element size is: 1. 
Average of gradients with correction (viscous flow terms).
Average of gradients with correction (viscous turbulence terms).
Gradient for upwind reconstruction: Green-Gauss.
Gradient for viscous and source terms: Green-Gauss.

--------------- Time Numerical Integration  ( Zone 0 ) ------------------
Local time stepping (steady state simulation).
Euler implicit method for the flow equations.
FGMRES is used for solving the linear system.
Using a LU-SGS preconditioning.
Convergence criteria of the linear solver: 1e-10.
Max number of linear iterations: 10.
No CFL adaptation.
Courant-Friedrichs-Lewy number:      200
Euler implicit time integration for the turbulence model.

------------------ Convergence Criteria  ( Zone 0 ) ---------------------
Maximum number of solver subiterations: 1000.
Begin convergence monitoring at iteration 10.
Residual minimum value: 1e-12.
Cauchy series min. value: 1e-10.
Number of Cauchy elements: 100.
Begin windowed time average at iteration 0.

-------------------- Output Information ( Zone 0 ) ----------------------
File writing frequency: 
+------------------------------------+
|                     File| Frequency|
+------------------------------------+
|            RESTART_ASCII|        10|
|      PARAVIEW_MULTIBLOCK|        10|
+------------------------------------+
Writing the convergence history file every 1 inner iterations.
Writing the screen convergence history every 1 inner iterations.
The tabular file format is CSV (.csv).
Convergence history file name: history.
Forces breakdown file name: forces_breakdown.dat.
Surface file name: surface.
Volume file name: flow.
Restart file name: restart.csv.

------------- Config File Boundary Information ( Zone 0 ) ---------------
+-----------------------------------------------------------------------+
|                        Marker Type|                        Marker Name|
+-----------------------------------------------------------------------+
|                     Symmetry plane|                           symmetry|
+-----------------------------------------------------------------------+
|                     Inlet boundary|                              inlet|
+-----------------------------------------------------------------------+
|                    Outlet boundary|                             outlet|
+-----------------------------------------------------------------------+
|                    Isothermal wall|                               wall|
+-----------------------------------------------------------------------+

-------------------- Output Preprocessing ( Zone 0 ) --------------------

WARNING: SURFACE_PRESSURE_DROP can only be computed for at least 2 surfaces (outlet, inlet, ...)

  Info: Ignoring the following screen output fields:
  RMS_DENSITY
Screen output fields: INNER_ITER, RMS_PRESSURE
History output group(s): ITER, RMS_RES
Convergence field(s): RMS_PRESSURE, RMS_VELOCITY-X
Warning: No (valid) fields chosen for time convergence monitoring. Time convergence monitoring inactive.
Volume output fields: RESIDUAL, SOLUTION, PRIMITIVE, COORDINATES

------------------- Geometry Preprocessing ( Zone 0 ) -------------------
Two dimensional problem.
11040 grid points.
10812 volume elements.
4 surface markers.
19 boundary elements in index 0 (Marker = inlet).
68 boundary elements in index 1 (Marker = outlet).
208 boundary elements in index 2 (Marker = symmetry).
159 boundary elements in index 3 (Marker = wall).
10812 quadrilaterals.
Setting point connectivity.
Renumbering points (Reverse Cuthill McKee Ordering).
Recomputing point connectivity.
Setting element connectivity.
Checking the numerical grid orientation.
All volume elements are correctly orientend.
All surface elements are correctly orientend.
Identifying edges and vertices.
Setting the control volume structure.
Area of the computational grid: 1.
Searching for the closest normal neighbors to the surfaces.
Storing a mapping from global to local point index.
Compute the surface curvature.
Max K: 243.873. Mean K: 2.62845. Standard deviation K: 22.3321.
Checking for periodicity.
Computing mesh quality statistics for the dual control volumes.
+--------------------------------------------------------------+
|           Mesh Quality Metric|        Minimum|        Maximum|
+--------------------------------------------------------------+
|    Orthogonality Angle (deg.)|        87.4385|        89.9599|
|     CV Face Area Aspect Ratio|        1.00263|        5.84082|
|           CV Sub-Volume Ratio|        1.00017|         3.4898|
+--------------------------------------------------------------+
Finding max control volume width.
Wetted area = 0 m.
Area projection in the x-plane = 0 m, y-plane = 0 m.
Max. coordinate in the x-direction = -1e+10 m, y-direction = -1e+10 m.
Min. coordinate in the x-direction = 1e+10 m, y-direction = 1e+10 m.
Checking if Euler & Symmetry markers are straight/plane:
Boundary marker symmetry is NOT a single straight.
Computing wall distances.

-------------------- Solver Preprocessing ( Zone 0 ) --------------------
 Warning: There is no restart file (flow.meta).
 Computation will continue without updating metadata parameters.
Incompressible flow: rho_ref, vel_ref, temp_ref, p_ref
are set to 1.0 in order to perform a dimensional calculation.
Force coefficients computed using initial values.
The reference area for force coeffs. is 1 m^2.
The reference length for force coeffs. is 1 m.
The pressure is decomposed into thermodynamic and dynamic components.
The initial value of the dynamic pressure is 0.
Mach number: 0.00301242, computed using the Bulk modulus.
For external flows, the initial state is imposed at the far-field.
Angle of attack (deg): 0, computed using the initial velocity.
Side slip angle (deg): 0, computed using the initial velocity.
Reynolds number per meter: 75093.2, computed using initial values.
Reynolds number is a byproduct of inputs only (not used internally).
SI units only. The grid should be dimensional (meters).
Energy equation is active and decoupled.

-- Models:
+------------------------------------------------------------------------------+
|          Viscosity Model|        Conductivity Model|              Fluid Model|
+------------------------------------------------------------------------------+
|       CONSTANT_VISCOSITY|                  CONSTANT|         CONSTANT_DENSITY|
+------------------------------------------------------------------------------+
-- Fluid properties:
+------------------------------------------------------------------------------+
|                  Name|    Dim. value|    Ref. value|      Unit|Non-dim. value|
+------------------------------------------------------------------------------+
|             Viscosity|     1.716e-05|             1|   N.s/m^2|     1.716e-05|
+------------------------------------------------------------------------------+
|       Molecular Cond.|        0.0257|             1|   W/m^2.K|        0.0257|
+------------------------------------------------------------------------------+
|       Spec. Heat (Cp)|          1001|             1|  N.m/kg.K|          1001|
|          Bulk Modulus|        142000|             1|        Pa|        142000|
+------------------------------------------------------------------------------+
-- Initial and free-stream conditions:
+------------------------------------------------------------------------------+
|                  Name|    Dim. value|    Ref. value|      Unit|Non-dim. value|
+------------------------------------------------------------------------------+
|      Dynamic Pressure|             0|             1|        Pa|             0|
|        Total Pressure|        0.6443|             1|        Pa|        0.6443|
|               Density|        1.2886|             1|    kg/m^3|        1.2886|
|           Temperature|        288.15|             1|         K|        288.15|
|            Velocity-X|             1|             1|       m/s|             1|
|            Velocity-Y|             0|             1|       m/s|             0|
|    Velocity Magnitude|             1|             1|       m/s|             1|
+------------------------------------------------------------------------------+
|             Viscosity|     1.716e-05|             1|   N.s/m^2|     1.716e-05|
|          Conductivity|             -|             1|   W/m^2.K|             -|
|     Turb. Kin. Energy|       0.00375|             1|   m^2/s^2|       0.00375|
|     Spec. Dissipation|         28.16|             1|       1/s|         28.16|
+------------------------------------------------------------------------------+
|           Mach Number|             -|             -|         -|    0.00301242|
|       Reynolds Number|             -|             -|         -|       75093.2|
+------------------------------------------------------------------------------+
Initialize Jacobian structure (Navier-Stokes). MG level: 0.
Initialize Jacobian structure (SA model).

------------------- Numerics Preprocessing ( Zone 0 ) -------------------

----------------- Integration Preprocessing ( Zone 0 ) ------------------

------------------- Iteration Preprocessing ( Zone 0 ) ------------------
Euler/Navier-Stokes/RANS fluid iteration.

------------------------------ Begin Solver -----------------------------

Simulation Run using the Single-zone Driver
+-------------------------+
|  Inner_Iter|      rms[P]|
+-------------------------+
|           0|   -2.873624|
|           1|   -2.909653|
|           2|   -2.936685|
|           3|   -2.963333|
|           4|   -2.990726|
|           5|   -3.025145|
|           6|   -3.061344|
|           7|   -3.100924|
|           8|   -3.139772|
|           9|   -3.175170|
|          10|   -3.206459|
+-----------------------------------------------------------------------+
|        File Writing Summary       |              Filename             |
+-----------------------------------------------------------------------+
|SU2 ASCII restart                  |restart.csv                        |
|Paraview Multiblock                |flow.vtm                           |
+-----------------------------------------------------------------------+
+-------------------------+
|  Inner_Iter|      rms[P]|
+-------------------------+
|          11|   -3.240481|
|          12|   -3.260847|
|          13|   -3.248653|
|          14|   -3.239431|
|          15|   -3.249936|
|          16|   -3.215509|
|          17|   -3.200919|
|          18|   -3.173492|
|          19|   -3.160871|
|          20|   -3.166740|
+-----------------------------------------------------------------------+
|        File Writing Summary       |              Filename             |
+-----------------------------------------------------------------------+
|SU2 ASCII restart                  |restart.csv                        |
|Paraview Multiblock                |flow.vtm                           |
+-----------------------------------------------------------------------+
+-------------------------+
|  Inner_Iter|      rms[P]|
+-------------------------+
|          21|   -3.173681|
|          22|   -3.184282|
|          23|   -3.189355|
|          24|   -3.196892|
|          25|   -3.194069|
|          26|   -3.209908|
|          27|   -3.209373|
|          28|   -3.219549|
|          29|   -3.223745|
|          30|   -3.236114|
+-----------------------------------------------------------------------+
|        File Writing Summary       |              Filename             |
+-----------------------------------------------------------------------+
|SU2 ASCII restart                  |restart.csv                        |
|Paraview Multiblock                |flow.vtm                           |
+-----------------------------------------------------------------------+
+-------------------------+
|  Inner_Iter|      rms[P]|
+-------------------------+
|          31|   -3.254647|
|          32|   -3.250560|
|          33|   -3.271693|
|          34|   -3.288792|
|          35|   -3.289455|
|          36|   -3.283138|
|          37|   -3.314680|
|          38|   -3.326274|
|          39|   -3.334910|
|          40|   -3.345830|
+-----------------------------------------------------------------------+
|        File Writing Summary       |              Filename             |
+-----------------------------------------------------------------------+
|SU2 ASCII restart                  |restart.csv                        |
|Paraview Multiblock                |flow.vtm                           |
+-----------------------------------------------------------------------+
+-------------------------+
|  Inner_Iter|      rms[P]|
+-------------------------+
|          41|   -3.355283|
|          42|   -3.366301|
|          43|   -3.377320|
|          44|   -3.386015|
|          45|   -3.393124|
|          46|   -3.399124|
|          47|   -3.404215|
|          48|   -3.408536|
|          49|   -3.412986|
|          50|   -3.417253|
+-----------------------------------------------------------------------+
|        File Writing Summary       |              Filename             |
+-----------------------------------------------------------------------+
|SU2 ASCII restart                  |restart.csv                        |
|Paraview Multiblock                |flow.vtm                           |
+-----------------------------------------------------------------------+
+-------------------------+
|  Inner_Iter|      rms[P]|
+-------------------------+
|          51|   -3.420976|
|          52|   -3.424284|
|          53|   -3.427194|
|          54|   -3.429666|
|          55|   -3.432256|
|          56|   -3.434553|
|          57|   -3.436959|
|          58|   -3.439390|
|          59|   -3.442008|
|          60|   -3.444527|
+-----------------------------------------------------------------------+
|        File Writing Summary       |              Filename             |
+-----------------------------------------------------------------------+
|SU2 ASCII restart                  |restart.csv                        |
|Paraview Multiblock                |flow.vtm                           |
+-----------------------------------------------------------------------+
+-------------------------+
|  Inner_Iter|      rms[P]|
+-------------------------+
|          61|   -3.446887|
|          62|   -3.449257|
|          63|   -3.451690|
|          64|   -3.454434|
|          65|   -3.457216|
|          66|   -3.459928|
|          67|   -3.462612|
|          68|   -3.465356|
|          69|   -3.468117|
|          70|   -3.471096|
+-----------------------------------------------------------------------+
|        File Writing Summary       |              Filename             |
+-----------------------------------------------------------------------+
|SU2 ASCII restart                  |restart.csv                        |
|Paraview Multiblock                |flow.vtm                           |
+-----------------------------------------------------------------------+
+-------------------------+
|  Inner_Iter|      rms[P]|
+-------------------------+
|          71|   -3.474239|
|          72|   -3.478110|
|          73|   -3.482812|
|          74|   -3.484079|
|          75|   -3.487377|
|          76|   -3.490949|
|          77|   -3.494659|
|          78|   -3.498395|
|          79|   -3.502113|
|          80|   -3.505834|
+-----------------------------------------------------------------------+
|        File Writing Summary       |              Filename             |
+-----------------------------------------------------------------------+
|SU2 ASCII restart                  |restart.csv                        |
|Paraview Multiblock                |flow.vtm                           |
+-----------------------------------------------------------------------+
+-------------------------+
|  Inner_Iter|      rms[P]|
+-------------------------+
|          81|   -3.509565|
|          82|   -3.513324|
|          83|   -3.517096|
|          84|   -3.520874|
|          85|   -3.524673|
|          86|   -3.528406|
|          87|   -3.532050|
|          88|   -3.535673|
|          89|   -3.539305|
|          90|   -3.542943|
+-----------------------------------------------------------------------+
|        File Writing Summary       |              Filename             |
+-----------------------------------------------------------------------+
|SU2 ASCII restart                  |restart.csv                        |
|Paraview Multiblock                |flow.vtm                           |
+-----------------------------------------------------------------------+
+-------------------------+
|  Inner_Iter|      rms[P]|
+-------------------------+
|          91|   -3.546564|
|          92|   -3.550192|
|          93|   -3.553951|
|          94|   -3.557779|
|          95|   -3.561643|
|          96|   -3.565564|
|          97|   -3.569544|
|          98|   -3.573921|
|          99|   -3.578986|
|         100|   -3.583770|
+-----------------------------------------------------------------------+
|        File Writing Summary       |              Filename             |
+-----------------------------------------------------------------------+
|SU2 ASCII restart                  |restart.csv                        |
|Paraview Multiblock                |flow.vtm                           |
+-----------------------------------------------------------------------+
+-------------------------+
|  Inner_Iter|      rms[P]|
+-------------------------+
|         101|   -3.588341|
|         102|   -3.592762|
|         103|   -3.597114|
|         104|   -3.601373|
|         105|   -3.605612|
|         106|   -3.609739|
|         107|   -3.613891|
|         108|   -3.617983|
|         109|   -3.622062|
|         110|   -3.626177|
+-----------------------------------------------------------------------+
|        File Writing Summary       |              Filename             |
+-----------------------------------------------------------------------+
|SU2 ASCII restart                  |restart.csv                        |
|Paraview Multiblock                |flow.vtm                           |
+-----------------------------------------------------------------------+
+-------------------------+
|  Inner_Iter|      rms[P]|
+-------------------------+
|         111|   -3.630231|
|         112|   -3.634330|
|         113|   -3.641346|
|         114|   -3.646069|
|         115|   -3.650433|
|         116|   -3.654830|
|         117|   -3.659344|
|         118|   -3.663836|
|         119|   -3.668332|
|         120|   -3.672838|
+-----------------------------------------------------------------------+
|        File Writing Summary       |              Filename             |
+-----------------------------------------------------------------------+
|SU2 ASCII restart                  |restart.csv                        |
|Paraview Multiblock                |flow.vtm                           |
+-----------------------------------------------------------------------+
+-------------------------+
|  Inner_Iter|      rms[P]|
+-------------------------+
|         121|   -3.677383|
|         122|   -3.681922|
|         123|   -3.686503|
|         124|   -3.691134|
|         125|   -3.695744|
|         126|   -3.700402|
|         127|   -3.705275|
|         128|   -3.710138|
|         129|   -3.715234|
|         130|   -3.721230|
+-----------------------------------------------------------------------+
|        File Writing Summary       |              Filename             |
+-----------------------------------------------------------------------+
|SU2 ASCII restart                  |restart.csv                        |
|Paraview Multiblock                |flow.vtm                           |
+-----------------------------------------------------------------------+
+-------------------------+
|  Inner_Iter|      rms[P]|
+-------------------------+
|         131|   -3.727380|
|         132|   -3.730459|
|         133|   -3.731653|
|         134|   -3.735109|
|         135|   -3.739391|
|         136|   -3.744055|
|         137|   -3.748842|
|         138|   -3.753859|
|         139|   -3.758943|
|         140|   -3.764070|
+-----------------------------------------------------------------------+
|        File Writing Summary       |              Filename             |
+-----------------------------------------------------------------------+
|SU2 ASCII restart                  |restart.csv                        |
|Paraview Multiblock                |flow.vtm                           |
+-----------------------------------------------------------------------+
+-------------------------+
|  Inner_Iter|      rms[P]|
+-------------------------+
|         141|   -3.769230|
|         142|   -3.774393|
|         143|   -3.779565|
|         144|   -3.784694|
|         145|   -3.789810|
|         146|   -3.794949|
|         147|   -3.799967|
|         148|   -3.804974|
|         149|   -3.809964|
|         150|   -3.814930|
+-----------------------------------------------------------------------+
|        File Writing Summary       |              Filename             |
+-----------------------------------------------------------------------+
|SU2 ASCII restart                  |restart.csv                        |
|Paraview Multiblock                |flow.vtm                           |
+-----------------------------------------------------------------------+
+-------------------------+
|  Inner_Iter|      rms[P]|
+-------------------------+
|         151|   -3.819878|
|         152|   -3.824845|
|         153|   -3.829871|
|         154|   -3.834683|
|         155|   -3.839665|
|         156|   -3.844443|
|         157|   -3.849830|
|         158|   -3.854917|
|         159|   -3.859849|
|         160|   -3.864682|
+-----------------------------------------------------------------------+
|        File Writing Summary       |              Filename             |
+-----------------------------------------------------------------------+
|SU2 ASCII restart                  |restart.csv                        |
|Paraview Multiblock                |flow.vtm                           |
+-----------------------------------------------------------------------+
+-------------------------+
|  Inner_Iter|      rms[P]|
+-------------------------+
|         161|   -3.869585|
|         162|   -3.874452|
|         163|   -3.879208|
|         164|   -3.883757|
|         165|   -3.888326|
|         166|   -3.893034|
|         167|   -3.897495|
|         168|   -3.901962|
|         169|   -3.906542|
|         170|   -3.911106|
+-----------------------------------------------------------------------+
|        File Writing Summary       |              Filename             |
+-----------------------------------------------------------------------+
|SU2 ASCII restart                  |restart.csv                        |
|Paraview Multiblock                |flow.vtm                           |
+-----------------------------------------------------------------------+
+-------------------------+
|  Inner_Iter|      rms[P]|
+-------------------------+
|         171|   -3.915660|
|         172|   -3.920177|
|         173|   -3.924659|
|         174|   -3.929100|
|         175|   -3.933521|
|         176|   -3.937907|
|         177|   -3.942270|
|         178|   -3.946634|
|         179|   -3.951040|
|         180|   -3.955490|
+-----------------------------------------------------------------------+
|        File Writing Summary       |              Filename             |
+-----------------------------------------------------------------------+
|SU2 ASCII restart                  |restart.csv                        |
|Paraview Multiblock                |flow.vtm                           |
+-----------------------------------------------------------------------+
+-------------------------+
|  Inner_Iter|      rms[P]|
+-------------------------+
|         181|   -3.959909|
|         182|   -3.964068|
|         183|   -3.967469|
|         184|   -3.969312|
|         185|   -3.971337|
|         186|   -3.974283|
|         187|   -3.979816|
|         188|   -3.984161|
|         189|   -3.988159|
|         190|   -3.991963|
+-----------------------------------------------------------------------+
|        File Writing Summary       |              Filename             |
+-----------------------------------------------------------------------+
|SU2 ASCII restart                  |restart.csv                        |
|Paraview Multiblock                |flow.vtm                           |
+-----------------------------------------------------------------------+
+-------------------------+
|  Inner_Iter|      rms[P]|
+-------------------------+
|         191|   -3.995646|
|         192|   -3.999221|
|         193|   -4.002740|
|         194|   -4.006237|
|         195|   -4.009736|
|         196|   -4.013236|
|         197|   -4.016743|
|         198|   -4.020247|
|         199|   -4.023741|
|         200|   -4.027226|
+-----------------------------------------------------------------------+
|        File Writing Summary       |              Filename             |
+-----------------------------------------------------------------------+
|SU2 ASCII restart                  |restart.csv                        |
|Paraview Multiblock                |flow.vtm                           |
+-----------------------------------------------------------------------+
+-------------------------+
|  Inner_Iter|      rms[P]|
+-------------------------+
|         201|   -4.030689|
|         202|   -4.034121|
|         203|   -4.037543|
|         204|   -4.040942|
|         205|   -4.044325|
|         206|   -4.047660|
|         207|   -4.050958|
|         208|   -4.054221|
|         209|   -4.057454|
|         210|   -4.060644|
+-----------------------------------------------------------------------+
|        File Writing Summary       |              Filename             |
+-----------------------------------------------------------------------+
|SU2 ASCII restart                  |restart.csv                        |
|Paraview Multiblock                |flow.vtm                           |
+-----------------------------------------------------------------------+
+-------------------------+
|  Inner_Iter|      rms[P]|
+-------------------------+
|         211|   -4.063784|
|         212|   -4.066882|
|         213|   -4.069944|
|         214|   -4.072956|
|         215|   -4.075929|
|         216|   -4.078850|
|         217|   -4.081736|
|         218|   -4.084583|
|         219|   -4.087382|
|         220|   -4.090133|
+-----------------------------------------------------------------------+
|        File Writing Summary       |              Filename             |
+-----------------------------------------------------------------------+
|SU2 ASCII restart                  |restart.csv                        |
|Paraview Multiblock                |flow.vtm                           |
+-----------------------------------------------------------------------+
+-------------------------+
|  Inner_Iter|      rms[P]|
+-------------------------+
|         221|   -4.092845|
|         222|   -4.095515|
|         223|   -4.098157|
|         224|   -4.100762|
|         225|   -4.103323|
|         226|   -4.105852|
|         227|   -4.108334|
|         228|   -4.110803|
|         229|   -4.113216|
|         230|   -4.115559|
+-----------------------------------------------------------------------+
|        File Writing Summary       |              Filename             |
+-----------------------------------------------------------------------+
|SU2 ASCII restart                  |restart.csv                        |
|Paraview Multiblock                |flow.vtm                           |
+-----------------------------------------------------------------------+
+-------------------------+
|  Inner_Iter|      rms[P]|
+-------------------------+
|         231|   -4.117891|
|         232|   -4.120247|
|         233|   -4.122552|
|         234|   -4.124790|
|         235|   -4.126970|
|         236|   -4.129106|
|         237|   -4.131250|
|         238|   -4.133411|
|         239|   -4.135521|
|         240|   -4.137573|
+-----------------------------------------------------------------------+
|        File Writing Summary       |              Filename             |
+-----------------------------------------------------------------------+
|SU2 ASCII restart                  |restart.csv                        |
|Paraview Multiblock                |flow.vtm                           |
+-----------------------------------------------------------------------+
+-------------------------+
|  Inner_Iter|      rms[P]|
+-------------------------+
|         241|   -4.139563|
|         242|   -4.141493|
|         243|   -4.143373|
|         244|   -4.145211|
|         245|   -4.147016|
|         246|   -4.148819|
|         247|   -4.150610|
|         248|   -4.152355|
|         249|   -4.154052|
|         250|   -4.155701|
+-----------------------------------------------------------------------+
|        File Writing Summary       |              Filename             |
+-----------------------------------------------------------------------+
|SU2 ASCII restart                  |restart.csv                        |
|Paraview Multiblock                |flow.vtm                           |
+-----------------------------------------------------------------------+
+-------------------------+
|  Inner_Iter|      rms[P]|
+-------------------------+
|         251|   -4.157309|
|         252|   -4.158879|
|         253|   -4.160414|
|         254|   -4.161918|
|         255|   -4.163390|
|         256|   -4.164838|
|         257|   -4.166280|
|         258|   -4.167692|
|         259|   -4.169071|
|         260|   -4.170420|
+-----------------------------------------------------------------------+
|        File Writing Summary       |              Filename             |
+-----------------------------------------------------------------------+
|SU2 ASCII restart                  |restart.csv                        |
|Paraview Multiblock                |flow.vtm                           |
+-----------------------------------------------------------------------+
+-------------------------+
|  Inner_Iter|      rms[P]|
+-------------------------+
|         261|   -4.171736|
|         262|   -4.173021|
|         263|   -4.174276|
|         264|   -4.175497|
|         265|   -4.176688|
|         266|   -4.177849|
|         267|   -4.178984|
|         268|   -4.180090|
|         269|   -4.181164|
|         270|   -4.182205|
+-----------------------------------------------------------------------+
|        File Writing Summary       |              Filename             |
+-----------------------------------------------------------------------+
|SU2 ASCII restart                  |restart.csv                        |
|Paraview Multiblock                |flow.vtm                           |
+-----------------------------------------------------------------------+
+-------------------------+
|  Inner_Iter|      rms[P]|
+-------------------------+
|         271|   -4.183214|
|         272|   -4.184192|
|         273|   -4.185139|
|         274|   -4.186057|
|         275|   -4.186948|
|         276|   -4.187812|
|         277|   -4.188653|
|         278|   -4.189468|
|         279|   -4.190257|
|         280|   -4.191020|
+-----------------------------------------------------------------------+
|        File Writing Summary       |              Filename             |
+-----------------------------------------------------------------------+
|SU2 ASCII restart                  |restart.csv                        |
|Paraview Multiblock                |flow.vtm                           |
+-----------------------------------------------------------------------+
+-------------------------+
|  Inner_Iter|      rms[P]|
+-------------------------+
|         281|   -4.191757|
|         282|   -4.192471|
|         283|   -4.193160|
|         284|   -4.193823|
|         285|   -4.194463|
|         286|   -4.195079|
|         287|   -4.195671|
|         288|   -4.196239|
|         289|   -4.196781|
|         290|   -4.197299|
+-----------------------------------------------------------------------+
|        File Writing Summary       |              Filename             |
+-----------------------------------------------------------------------+
|SU2 ASCII restart                  |restart.csv                        |
|Paraview Multiblock                |flow.vtm                           |
+-----------------------------------------------------------------------+
+-------------------------+
|  Inner_Iter|      rms[P]|
+-------------------------+
|         291|   -4.197793|
|         292|   -4.198264|
|         293|   -4.198711|
|         294|   -4.199134|
|         295|   -4.199534|
|         296|   -4.199911|
|         297|   -4.200266|
|         298|   -4.200600|
|         299|   -4.200916|
|         300|   -4.201217|
+-----------------------------------------------------------------------+
|        File Writing Summary       |              Filename             |
+-----------------------------------------------------------------------+
|SU2 ASCII restart                  |restart.csv                        |
|Paraview Multiblock                |flow.vtm                           |
+-----------------------------------------------------------------------+
+-------------------------+
|  Inner_Iter|      rms[P]|
+-------------------------+
|         301|   -4.201503|
|         302|   -4.201772|
|         303|   -4.202023|
|         304|   -4.202250|
|         305|   -4.202446|
|         306|   -4.202605|
|         307|   -4.202724|
|         308|   -4.202814|
|         309|   -4.202905|
|         310|   -4.203018|
+-----------------------------------------------------------------------+
|        File Writing Summary       |              Filename             |
+-----------------------------------------------------------------------+
|SU2 ASCII restart                  |restart.csv                        |
|Paraview Multiblock                |flow.vtm                           |
+-----------------------------------------------------------------------+
+-------------------------+
|  Inner_Iter|      rms[P]|
+-------------------------+
|         311|   -4.203146|
|         312|   -4.203269|
|         313|   -4.203375|
|         314|   -4.203456|
|         315|   -4.203509|
|         316|   -4.203536|
|         317|   -4.203539|
|         318|   -4.203521|
|         319|   -4.203484|
|         320|   -4.203429|
+-----------------------------------------------------------------------+
|        File Writing Summary       |              Filename             |
+-----------------------------------------------------------------------+
|SU2 ASCII restart                  |restart.csv                        |
|Paraview Multiblock                |flow.vtm                           |
+-----------------------------------------------------------------------+
+-------------------------+
|  Inner_Iter|      rms[P]|
+-------------------------+
|         321|   -4.203357|
|         322|   -4.203270|
|         323|   -4.203167|
|         324|   -4.203049|
|         325|   -4.202916|
|         326|   -4.202768|
|         327|   -4.202606|
|         328|   -4.202430|
|         329|   -4.202241|
|         330|   -4.202038|
+-----------------------------------------------------------------------+
|        File Writing Summary       |              Filename             |
+-----------------------------------------------------------------------+
|SU2 ASCII restart                  |restart.csv                        |
|Paraview Multiblock                |flow.vtm                           |
+-----------------------------------------------------------------------+
+-------------------------+
|  Inner_Iter|      rms[P]|
+-------------------------+
|         331|   -4.201822|
|         332|   -4.201592|
|         333|   -4.201349|
|         334|   -4.201094|
|         335|   -4.200826|
|         336|   -4.200547|
|         337|   -4.200255|
|         338|   -4.199952|
|         339|   -4.199637|
|         340|   -4.199311|
+-----------------------------------------------------------------------+
|        File Writing Summary       |              Filename             |
+-----------------------------------------------------------------------+
|SU2 ASCII restart                  |restart.csv                        |
|Paraview Multiblock                |flow.vtm                           |
+-----------------------------------------------------------------------+
+-------------------------+
|  Inner_Iter|      rms[P]|
+-------------------------+
|         341|   -4.198974|
|         342|   -4.198626|
|         343|   -4.198268|
|         344|   -4.197898|
|         345|   -4.197519|
|         346|   -4.197129|
|         347|   -4.196730|
|         348|   -4.196321|
|         349|   -4.195903|
|         350|   -4.195476|
+-----------------------------------------------------------------------+
|        File Writing Summary       |              Filename             |
+-----------------------------------------------------------------------+
|SU2 ASCII restart                  |restart.csv                        |
|Paraview Multiblock                |flow.vtm                           |
+-----------------------------------------------------------------------+
+-------------------------+
|  Inner_Iter|      rms[P]|
+-------------------------+
|         351|   -4.195039|
|         352|   -4.194594|
|         353|   -4.194141|
|         354|   -4.193679|
|         355|   -4.193209|
|         356|   -4.192731|
|         357|   -4.192246|
|         358|   -4.191752|
|         359|   -4.191251|
|         360|   -4.190743|
+-----------------------------------------------------------------------+
|        File Writing Summary       |              Filename             |
+-----------------------------------------------------------------------+
|SU2 ASCII restart                  |restart.csv                        |
|Paraview Multiblock                |flow.vtm                           |
+-----------------------------------------------------------------------+
+-------------------------+
|  Inner_Iter|      rms[P]|
+-------------------------+
|         361|   -4.190228|
|         362|   -4.189707|
|         363|   -4.189178|
|         364|   -4.188643|
|         365|   -4.188102|
|         366|   -4.187554|
|         367|   -4.187001|
|         368|   -4.186441|
|         369|   -4.185876|
|         370|   -4.185305|
+-----------------------------------------------------------------------+
|        File Writing Summary       |              Filename             |
+-----------------------------------------------------------------------+
|SU2 ASCII restart                  |restart.csv                        |
|Paraview Multiblock                |flow.vtm                           |
+-----------------------------------------------------------------------+
+-------------------------+
|  Inner_Iter|      rms[P]|
+-------------------------+
|         371|   -4.184729|
|         372|   -4.184148|
|         373|   -4.183561|
|         374|   -4.182970|
|         375|   -4.182373|
|         376|   -4.181773|
|         377|   -4.181168|
|         378|   -4.180559|
|         379|   -4.179945|
|         380|   -4.179327|
+-----------------------------------------------------------------------+
|        File Writing Summary       |              Filename             |
+-----------------------------------------------------------------------+
|SU2 ASCII restart                  |restart.csv                        |
|Paraview Multiblock                |flow.vtm                           |
+-----------------------------------------------------------------------+
+-------------------------+
|  Inner_Iter|      rms[P]|
+-------------------------+
|         381|   -4.178706|
|         382|   -4.178080|
|         383|   -4.177451|
|         384|   -4.176818|
|         385|   -4.176182|
|         386|   -4.175542|
|         387|   -4.174900|
|         388|   -4.174255|
|         389|   -4.173607|
|         390|   -4.172956|
+-----------------------------------------------------------------------+
|        File Writing Summary       |              Filename             |
+-----------------------------------------------------------------------+
|SU2 ASCII restart                  |restart.csv                        |
|Paraview Multiblock                |flow.vtm                           |
+-----------------------------------------------------------------------+
+-------------------------+
|  Inner_Iter|      rms[P]|
+-------------------------+
|         391|   -4.172302|
|         392|   -4.171646|
|         393|   -4.170987|
|         394|   -4.170326|
|         395|   -4.169663|
|         396|   -4.168997|
|         397|   -4.168331|
|         398|   -4.167662|
|         399|   -4.166992|
|         400|   -4.166321|
+-----------------------------------------------------------------------+
|        File Writing Summary       |              Filename             |
+-----------------------------------------------------------------------+
|SU2 ASCII restart                  |restart.csv                        |
|Paraview Multiblock                |flow.vtm                           |
+-----------------------------------------------------------------------+
+-------------------------+
|  Inner_Iter|      rms[P]|
+-------------------------+
|         401|   -4.165647|
|         402|   -4.164973|
|         403|   -4.164296|
|         404|   -4.163619|
|         405|   -4.162940|
|         406|   -4.162260|
|         407|   -4.161579|
|         408|   -4.160898|
|         409|   -4.160216|
|         410|   -4.159533|
+-----------------------------------------------------------------------+
|        File Writing Summary       |              Filename             |
+-----------------------------------------------------------------------+
|SU2 ASCII restart                  |restart.csv                        |
|Paraview Multiblock                |flow.vtm                           |
+-----------------------------------------------------------------------+
+-------------------------+
|  Inner_Iter|      rms[P]|
+-------------------------+
|         411|   -4.158850|
|         412|   -4.158167|
|         413|   -4.157483|
|         414|   -4.156799|
|         415|   -4.156115|
|         416|   -4.155431|
|         417|   -4.154746|
|         418|   -4.154062|
|         419|   -4.153378|
|         420|   -4.152695|
+-----------------------------------------------------------------------+
|        File Writing Summary       |              Filename             |
+-----------------------------------------------------------------------+
|SU2 ASCII restart                  |restart.csv                        |
|Paraview Multiblock                |flow.vtm                           |
+-----------------------------------------------------------------------+
+-------------------------+
|  Inner_Iter|      rms[P]|
+-------------------------+
|         421|   -4.152011|
|         422|   -4.151328|
|         423|   -4.150645|
|         424|   -4.149963|
|         425|   -4.149281|
|         426|   -4.148601|
|         427|   -4.147921|
|         428|   -4.147243|
|         429|   -4.146565|
|         430|   -4.145889|
+-----------------------------------------------------------------------+
|        File Writing Summary       |              Filename             |
+-----------------------------------------------------------------------+
|SU2 ASCII restart                  |restart.csv                        |
|Paraview Multiblock                |flow.vtm                           |
+-----------------------------------------------------------------------+
+-------------------------+
|  Inner_Iter|      rms[P]|
+-------------------------+
|         431|   -4.145213|
|         432|   -4.144539|
|         433|   -4.143865|
|         434|   -4.143194|
|         435|   -4.142523|
|         436|   -4.141855|
|         437|   -4.141188|
|         438|   -4.140522|
|         439|   -4.139858|
|         440|   -4.139196|
+-----------------------------------------------------------------------+
|        File Writing Summary       |              Filename             |
+-----------------------------------------------------------------------+
|SU2 ASCII restart                  |restart.csv                        |
|Paraview Multiblock                |flow.vtm                           |
+-----------------------------------------------------------------------+
+-------------------------+
|  Inner_Iter|      rms[P]|
+-------------------------+
|         441|   -4.138536|
|         442|   -4.137878|
|         443|   -4.137222|
|         444|   -4.136569|
|         445|   -4.135917|
|         446|   -4.135268|
|         447|   -4.134621|
|         448|   -4.133976|
|         449|   -4.133334|
|         450|   -4.132694|
+-----------------------------------------------------------------------+
|        File Writing Summary       |              Filename             |
+-----------------------------------------------------------------------+
|SU2 ASCII restart                  |restart.csv                        |
|Paraview Multiblock                |flow.vtm                           |
+-----------------------------------------------------------------------+
+-------------------------+
|  Inner_Iter|      rms[P]|
+-------------------------+
|         451|   -4.132057|
|         452|   -4.131424|
|         453|   -4.130793|
|         454|   -4.130165|
|         455|   -4.129539|
|         456|   -4.128917|
|         457|   -4.128297|
|         458|   -4.127682|
|         459|   -4.127069|
|         460|   -4.126460|
+-----------------------------------------------------------------------+
|        File Writing Summary       |              Filename             |
+-----------------------------------------------------------------------+
|SU2 ASCII restart                  |restart.csv                        |
|Paraview Multiblock                |flow.vtm                           |
+-----------------------------------------------------------------------+
+-------------------------+
|  Inner_Iter|      rms[P]|
+-------------------------+
|         461|   -4.125855|
|         462|   -4.125254|
|         463|   -4.124656|
|         464|   -4.124062|
|         465|   -4.123472|
|         466|   -4.122885|
|         467|   -4.122300|
|         468|   -4.121719|
|         469|   -4.121144|
|         470|   -4.120574|
+-----------------------------------------------------------------------+
|        File Writing Summary       |              Filename             |
+-----------------------------------------------------------------------+
|SU2 ASCII restart                  |restart.csv                        |
|Paraview Multiblock                |flow.vtm                           |
+-----------------------------------------------------------------------+
+-------------------------+
|  Inner_Iter|      rms[P]|
+-------------------------+
|         471|   -4.120010|
|         472|   -4.119451|
|         473|   -4.118896|
|         474|   -4.118346|
|         475|   -4.117799|
|         476|   -4.117256|
|         477|   -4.116718|
|         478|   -4.116185|
|         479|   -4.115657|
|         480|   -4.115136|
+-----------------------------------------------------------------------+
|        File Writing Summary       |              Filename             |
+-----------------------------------------------------------------------+
|SU2 ASCII restart                  |restart.csv                        |
|Paraview Multiblock                |flow.vtm                           |
+-----------------------------------------------------------------------+
+-------------------------+
|  Inner_Iter|      rms[P]|
+-------------------------+
|         481|   -4.114620|
|         482|   -4.114110|
|         483|   -4.113605|
|         484|   -4.113107|
|         485|   -4.112614|
|         486|   -4.112127|
|         487|   -4.111647|
|         488|   -4.111174|
|         489|   -4.110707|
|         490|   -4.110246|
+-----------------------------------------------------------------------+
|        File Writing Summary       |              Filename             |
+-----------------------------------------------------------------------+
|SU2 ASCII restart                  |restart.csv                        |
|Paraview Multiblock                |flow.vtm                           |
+-----------------------------------------------------------------------+
+-------------------------+
|  Inner_Iter|      rms[P]|
+-------------------------+
|         491|   -4.109792|
|         492|   -4.109346|
|         493|   -4.108908|
|         494|   -4.108476|
|         495|   -4.108052|
|         496|   -4.107636|
|         497|   -4.107228|
|         498|   -4.106828|
|         499|   -4.106436|
|         500|   -4.106053|
+-----------------------------------------------------------------------+
|        File Writing Summary       |              Filename             |
+-----------------------------------------------------------------------+
|SU2 ASCII restart                  |restart.csv                        |
|Paraview Multiblock                |flow.vtm                           |
+-----------------------------------------------------------------------+
+-------------------------+
|  Inner_Iter|      rms[P]|
+-------------------------+
|         501|   -4.105679|
|         502|   -4.105313|
|         503|   -4.104957|
|         504|   -4.104610|
|         505|   -4.104273|
|         506|   -4.103945|
|         507|   -4.103628|
|         508|   -4.103321|
|         509|   -4.103024|
|         510|   -4.102737|
+-----------------------------------------------------------------------+
|        File Writing Summary       |              Filename             |
+-----------------------------------------------------------------------+
|SU2 ASCII restart                  |restart.csv                        |
|Paraview Multiblock                |flow.vtm                           |
+-----------------------------------------------------------------------+
+-------------------------+
|  Inner_Iter|      rms[P]|
+-------------------------+
|         511|   -4.102462|
|         512|   -4.102199|
|         513|   -4.101947|
|         514|   -4.101706|
|         515|   -4.101477|
|         516|   -4.101262|
|         517|   -4.101059|
|         518|   -4.100868|
|         519|   -4.100691|
|         520|   -4.100527|
+-----------------------------------------------------------------------+
|        File Writing Summary       |              Filename             |
+-----------------------------------------------------------------------+
|SU2 ASCII restart                  |restart.csv                        |
|Paraview Multiblock                |flow.vtm                           |
+-----------------------------------------------------------------------+
+-------------------------+
|  Inner_Iter|      rms[P]|
+-------------------------+
|         521|   -4.100378|
|         522|   -4.100241|
|         523|   -4.100121|
|         524|   -4.100015|
|         525|   -4.099924|
|         526|   -4.099848|
|         527|   -4.099788|
|         528|   -4.099745|
|         529|   -4.099718|
|         530|   -4.099707|
+-----------------------------------------------------------------------+
|        File Writing Summary       |              Filename             |
+-----------------------------------------------------------------------+
|SU2 ASCII restart                  |restart.csv                        |
|Paraview Multiblock                |flow.vtm                           |
+-----------------------------------------------------------------------+
+-------------------------+
|  Inner_Iter|      rms[P]|
+-------------------------+
|         531|   -4.099715|
|         532|   -4.099741|
|         533|   -4.099785|
|         534|   -4.099848|
|         535|   -4.099930|
|         536|   -4.100032|
|         537|   -4.100155|
|         538|   -4.100298|
|         539|   -4.100463|
|         540|   -4.100650|
+-----------------------------------------------------------------------+
|        File Writing Summary       |              Filename             |
+-----------------------------------------------------------------------+
|SU2 ASCII restart                  |restart.csv                        |
|Paraview Multiblock                |flow.vtm                           |
+-----------------------------------------------------------------------+
+-------------------------+
|  Inner_Iter|      rms[P]|
+-------------------------+
|         541|   -4.100860|
|         542|   -4.101093|
|         543|   -4.101350|
|         544|   -4.101632|
|         545|   -4.101939|
|         546|   -4.102272|
|         547|   -4.102629|
|         548|   -4.103014|
|         549|   -4.103425|
|         550|   -4.103866|
+-----------------------------------------------------------------------+
|        File Writing Summary       |              Filename             |
+-----------------------------------------------------------------------+
|SU2 ASCII restart                  |restart.csv                        |
|Paraview Multiblock                |flow.vtm                           |
+-----------------------------------------------------------------------+
+-------------------------+
|  Inner_Iter|      rms[P]|
+-------------------------+
|         551|   -4.104335|
|         552|   -4.104833|
|         553|   -4.105358|
|         554|   -4.105913|
|         555|   -4.106499|
|         556|   -4.107116|
|         557|   -4.107766|
|         558|   -4.108450|
|         559|   -4.109167|
|         560|   -4.109919|
+-----------------------------------------------------------------------+
|        File Writing Summary       |              Filename             |
+-----------------------------------------------------------------------+
|SU2 ASCII restart                  |restart.csv                        |
|Paraview Multiblock                |flow.vtm                           |
+-----------------------------------------------------------------------+
+-------------------------+
|  Inner_Iter|      rms[P]|
+-------------------------+
|         561|   -4.110706|
|         562|   -4.111530|
|         563|   -4.112392|
|         564|   -4.113292|
|         565|   -4.114230|
|         566|   -4.115208|
|         567|   -4.116227|
|         568|   -4.117288|
|         569|   -4.118393|
|         570|   -4.119542|
+-----------------------------------------------------------------------+
|        File Writing Summary       |              Filename             |
+-----------------------------------------------------------------------+
|SU2 ASCII restart                  |restart.csv                        |
|Paraview Multiblock                |flow.vtm                           |
+-----------------------------------------------------------------------+
+-------------------------+
|  Inner_Iter|      rms[P]|
+-------------------------+
|         571|   -4.120737|
|         572|   -4.121978|
|         573|   -4.123266|
|         574|   -4.124604|
|         575|   -4.125991|
|         576|   -4.127430|
|         577|   -4.128921|
|         578|   -4.130466|
|         579|   -4.132065|
|         580|   -4.133719|
+-----------------------------------------------------------------------+
|        File Writing Summary       |              Filename             |
+-----------------------------------------------------------------------+
|SU2 ASCII restart                  |restart.csv                        |
|Paraview Multiblock                |flow.vtm                           |
+-----------------------------------------------------------------------+
+-------------------------+
|  Inner_Iter|      rms[P]|
+-------------------------+
|         581|   -4.135430|
|         582|   -4.137199|
|         583|   -4.139027|
|         584|   -4.140918|
|         585|   -4.142874|
|         586|   -4.144892|
|         587|   -4.146973|
|         588|   -4.149122|
|         589|   -4.151339|
|         590|   -4.153629|
+-----------------------------------------------------------------------+
|        File Writing Summary       |              Filename             |
+-----------------------------------------------------------------------+
|SU2 ASCII restart                  |restart.csv                        |
|Paraview Multiblock                |flow.vtm                           |
+-----------------------------------------------------------------------+
+-------------------------+
|  Inner_Iter|      rms[P]|
+-------------------------+
|         591|   -4.155994|
|         592|   -4.158432|
|         593|   -4.160944|
|         594|   -4.163536|
|         595|   -4.166206|
|         596|   -4.168963|
|         597|   -4.171808|
|         598|   -4.174738|
|         599|   -4.177754|
|         600|   -4.180864|
+-----------------------------------------------------------------------+
|        File Writing Summary       |              Filename             |
+-----------------------------------------------------------------------+
|SU2 ASCII restart                  |restart.csv                        |
|Paraview Multiblock                |flow.vtm                           |
+-----------------------------------------------------------------------+
+-------------------------+
|  Inner_Iter|      rms[P]|
+-------------------------+
|         601|   -4.184066|
|         602|   -4.187369|
|         603|   -4.190775|
|         604|   -4.194279|
|         605|   -4.197884|
|         606|   -4.201597|
|         607|   -4.205418|
|         608|   -4.209355|
|         609|   -4.213412|
|         610|   -4.217585|
+-----------------------------------------------------------------------+
|        File Writing Summary       |              Filename             |
+-----------------------------------------------------------------------+
|SU2 ASCII restart                  |restart.csv                        |
|Paraview Multiblock                |flow.vtm                           |
+-----------------------------------------------------------------------+
+-------------------------+
|  Inner_Iter|      rms[P]|
+-------------------------+
|         611|   -4.221875|
|         612|   -4.226293|
|         613|   -4.230845|
|         614|   -4.235529|
|         615|   -4.240346|
|         616|   -4.245306|
|         617|   -4.250420|
|         618|   -4.255682|
|         619|   -4.261095|
|         620|   -4.266672|
+-----------------------------------------------------------------------+
|        File Writing Summary       |              Filename             |
+-----------------------------------------------------------------------+
|SU2 ASCII restart                  |restart.csv                        |
|Paraview Multiblock                |flow.vtm                           |
+-----------------------------------------------------------------------+
+-------------------------+
|  Inner_Iter|      rms[P]|
+-------------------------+
|         621|   -4.272420|
|         622|   -4.278331|
|         623|   -4.284422|
|         624|   -4.290681|
|         625|   -4.297113|
|         626|   -4.303723|
|         627|   -4.310482|
|         628|   -4.317349|
|         629|   -4.324440|
|         630|   -4.331742|
+-----------------------------------------------------------------------+
|        File Writing Summary       |              Filename             |
+-----------------------------------------------------------------------+
|SU2 ASCII restart                  |restart.csv                        |
|Paraview Multiblock                |flow.vtm                           |
+-----------------------------------------------------------------------+
+-------------------------+
|  Inner_Iter|      rms[P]|
+-------------------------+
|         631|   -4.339245|
|         632|   -4.346955|
|         633|   -4.354870|
|         634|   -4.362997|
|         635|   -4.371347|
|         636|   -4.379941|
|         637|   -4.388912|
|         638|   -4.402070|
|         639|   -4.412739|
|         640|   -4.423286|
+-----------------------------------------------------------------------+
|        File Writing Summary       |              Filename             |
+-----------------------------------------------------------------------+
|SU2 ASCII restart                  |restart.csv                        |
|Paraview Multiblock                |flow.vtm                           |
+-----------------------------------------------------------------------+
+-------------------------+
|  Inner_Iter|      rms[P]|
+-------------------------+
|         641|   -4.434178|
|         642|   -4.445502|
|         643|   -4.457241|
|         644|   -4.469439|
|         645|   -4.482114|
|         646|   -4.495326|
|         647|   -4.509098|
|         648|   -4.523427|
|         649|   -4.538343|
|         650|   -4.553908|
+-----------------------------------------------------------------------+
|        File Writing Summary       |              Filename             |
+-----------------------------------------------------------------------+
|SU2 ASCII restart                  |restart.csv                        |
|Paraview Multiblock                |flow.vtm                           |
+-----------------------------------------------------------------------+
+-------------------------+
|  Inner_Iter|      rms[P]|
+-------------------------+
|         651|   -4.570130|
|         652|   -4.587080|
|         653|   -4.604783|
|         654|   -4.623215|
|         655|   -4.642380|
|         656|   -4.662301|
|         657|   -4.682932|
|         658|   -4.704240|
|         659|   -4.726060|
|         660|   -4.748261|
+-----------------------------------------------------------------------+
|        File Writing Summary       |              Filename             |
+-----------------------------------------------------------------------+
|SU2 ASCII restart                  |restart.csv                        |
|Paraview Multiblock                |flow.vtm                           |
+-----------------------------------------------------------------------+
+-------------------------+
|  Inner_Iter|      rms[P]|
+-------------------------+
|         661|   -4.770548|
|         662|   -4.792437|
|         663|   -4.816976|
|         664|   -4.841243|
|         665|   -4.862753|
|         666|   -4.880530|
|         667|   -4.893736|
|         668|   -4.901625|
|         669|   -4.903562|
|         670|   -4.899254|
+-----------------------------------------------------------------------+
|        File Writing Summary       |              Filename             |
+-----------------------------------------------------------------------+
|SU2 ASCII restart                  |restart.csv                        |
|Paraview Multiblock                |flow.vtm                           |
+-----------------------------------------------------------------------+
+-------------------------+
|  Inner_Iter|      rms[P]|
+-------------------------+
|         671|   -4.888943|
|         672|   -4.873283|
|         673|   -4.853175|
|         674|   -4.829722|
|         675|   -4.803946|
|         676|   -4.776757|
|         677|   -4.748883|
|         678|   -4.720878|
|         679|   -4.693156|
|         680|   -4.666015|
+-----------------------------------------------------------------------+
|        File Writing Summary       |              Filename             |
+-----------------------------------------------------------------------+
|SU2 ASCII restart                  |restart.csv                        |
|Paraview Multiblock                |flow.vtm                           |
+-----------------------------------------------------------------------+
+-------------------------+
|  Inner_Iter|      rms[P]|
+-------------------------+
|         681|   -4.639660|
|         682|   -4.614206|
|         683|   -4.589742|
|         684|   -4.566302|
|         685|   -4.543900|
|         686|   -4.522551|
|         687|   -4.502219|
|         688|   -4.482897|
|         689|   -4.464545|
|         690|   -4.447134|
+-----------------------------------------------------------------------+
|        File Writing Summary       |              Filename             |
+-----------------------------------------------------------------------+
|SU2 ASCII restart                  |restart.csv                        |
|Paraview Multiblock                |flow.vtm                           |
+-----------------------------------------------------------------------+
+-------------------------+
|  Inner_Iter|      rms[P]|
+-------------------------+
|         691|   -4.430623|
|         692|   -4.414981|
|         693|   -4.400166|
|         694|   -4.386143|
|         695|   -4.372878|
|         696|   -4.360338|
|         697|   -4.348493|
|         698|   -4.337316|
|         699|   -4.326783|
|         700|   -4.316876|
+-----------------------------------------------------------------------+
|        File Writing Summary       |              Filename             |
+-----------------------------------------------------------------------+
|SU2 ASCII restart                  |restart.csv                        |
|Paraview Multiblock                |flow.vtm                           |
+-----------------------------------------------------------------------+
+-------------------------+
|  Inner_Iter|      rms[P]|
+-------------------------+
|         701|   -4.307578|
|         702|   -4.298880|
|         703|   -4.290772|
|         704|   -4.283250|
|         705|   -4.276313|
|         706|   -4.269960|
|         707|   -4.264184|
|         708|   -4.258982|
|         709|   -4.254362|
|         710|   -4.250318|
+-----------------------------------------------------------------------+
|        File Writing Summary       |              Filename             |
+-----------------------------------------------------------------------+
|SU2 ASCII restart                  |restart.csv                        |
|Paraview Multiblock                |flow.vtm                           |
+-----------------------------------------------------------------------+
+-------------------------+
|  Inner_Iter|      rms[P]|
+-------------------------+
|         711|   -4.246852|
|         712|   -4.243968|
|         713|   -4.241660|
|         714|   -4.239927|
|         715|   -4.238773|
|         716|   -4.238210|
|         717|   -4.238218|
|         718|   -4.238783|
|         719|   -4.239895|
|         720|   -4.241547|
+-----------------------------------------------------------------------+
|        File Writing Summary       |              Filename             |
+-----------------------------------------------------------------------+
|SU2 ASCII restart                  |restart.csv                        |
|Paraview Multiblock                |flow.vtm                           |
+-----------------------------------------------------------------------+
+-------------------------+
|  Inner_Iter|      rms[P]|
+-------------------------+
|         721|   -4.243732|
|         722|   -4.246441|
|         723|   -4.249670|
|         724|   -4.253411|
|         725|   -4.257651|
|         726|   -4.262382|
|         727|   -4.267586|
|         728|   -4.273249|
|         729|   -4.279351|
|         730|   -4.285875|
+-----------------------------------------------------------------------+
|        File Writing Summary       |              Filename             |
+-----------------------------------------------------------------------+
|SU2 ASCII restart                  |restart.csv                        |
|Paraview Multiblock                |flow.vtm                           |
+-----------------------------------------------------------------------+
+-------------------------+
|  Inner_Iter|      rms[P]|
+-------------------------+
|         731|   -4.292792|
|         732|   -4.300073|
|         733|   -4.307884|
|         734|   -4.316453|
|         735|   -4.325380|
|         736|   -4.334692|
|         737|   -4.344395|
|         738|   -4.354523|
|         739|   -4.365138|
|         740|   -4.376294|
+-----------------------------------------------------------------------+
|        File Writing Summary       |              Filename             |
+-----------------------------------------------------------------------+
|SU2 ASCII restart                  |restart.csv                        |
|Paraview Multiblock                |flow.vtm                           |
+-----------------------------------------------------------------------+
+-------------------------+
|  Inner_Iter|      rms[P]|
+-------------------------+
|         741|   -4.388060|
|         742|   -4.400468|
|         743|   -4.413590|
|         744|   -4.427458|
|         745|   -4.442104|
|         746|   -4.457587|
|         747|   -4.473905|
|         748|   -4.491112|
|         749|   -4.509255|
|         750|   -4.528353|
+-----------------------------------------------------------------------+
|        File Writing Summary       |              Filename             |
+-----------------------------------------------------------------------+
|SU2 ASCII restart                  |restart.csv                        |
|Paraview Multiblock                |flow.vtm                           |
+-----------------------------------------------------------------------+
+-------------------------+
|  Inner_Iter|      rms[P]|
+-------------------------+
|         751|   -4.548400|
|         752|   -4.569169|
|         753|   -4.590805|
|         754|   -4.612986|
|         755|   -4.635398|
|         756|   -4.657589|
|         757|   -4.679036|
|         758|   -4.699085|
|         759|   -4.716967|
|         760|   -4.731837|
+-----------------------------------------------------------------------+
|        File Writing Summary       |              Filename             |
+-----------------------------------------------------------------------+
|SU2 ASCII restart                  |restart.csv                        |
|Paraview Multiblock                |flow.vtm                           |
+-----------------------------------------------------------------------+
+-------------------------+
|  Inner_Iter|      rms[P]|
+-------------------------+
|         761|   -4.742790|
|         762|   -4.749023|
|         763|   -4.750138|
|         764|   -4.745934|
|         765|   -4.736895|
|         766|   -4.723385|
|         767|   -4.706301|
|         768|   -4.686490|
|         769|   -4.664875|
|         770|   -4.642242|
+-----------------------------------------------------------------------+
|        File Writing Summary       |              Filename             |
+-----------------------------------------------------------------------+
|SU2 ASCII restart                  |restart.csv                        |
|Paraview Multiblock                |flow.vtm                           |
+-----------------------------------------------------------------------+
+-------------------------+
|  Inner_Iter|      rms[P]|
+-------------------------+
|         771|   -4.619060|
|         772|   -4.595878|
|         773|   -4.573040|
|         774|   -4.550721|
|         775|   -4.529046|
|         776|   -4.508190|
|         777|   -4.488239|
|         778|   -4.469209|
|         779|   -4.451101|
|         780|   -4.433935|
+-----------------------------------------------------------------------+
|        File Writing Summary       |              Filename             |
+-----------------------------------------------------------------------+
|SU2 ASCII restart                  |restart.csv                        |
|Paraview Multiblock                |flow.vtm                           |
+-----------------------------------------------------------------------+
+-------------------------+
|  Inner_Iter|      rms[P]|
+-------------------------+
|         781|   -4.417693|
|         782|   -4.402349|
|         783|   -4.387900|
|         784|   -4.374316|
|         785|   -4.361567|
|         786|   -4.349617|
|         787|   -4.338447|
|         788|   -4.328025|
|         789|   -4.318329|
|         790|   -4.309334|
+-----------------------------------------------------------------------+
|        File Writing Summary       |              Filename             |
+-----------------------------------------------------------------------+
|SU2 ASCII restart                  |restart.csv                        |
|Paraview Multiblock                |flow.vtm                           |
+-----------------------------------------------------------------------+
+-------------------------+
|  Inner_Iter|      rms[P]|
+-------------------------+
|         791|   -4.301019|
|         792|   -4.293367|
|         793|   -4.286357|
|         794|   -4.279972|
|         795|   -4.274194|
|         796|   -4.269007|
|         797|   -4.264399|
|         798|   -4.260359|
|         799|   -4.256879|
|         800|   -4.253952|
+-----------------------------------------------------------------------+
|        File Writing Summary       |              Filename             |
+-----------------------------------------------------------------------+
|SU2 ASCII restart                  |restart.csv                        |
|Paraview Multiblock                |flow.vtm                           |
+-----------------------------------------------------------------------+
+-------------------------+
|  Inner_Iter|      rms[P]|
+-------------------------+
|         801|   -4.251573|
|         802|   -4.249739|
|         803|   -4.248448|
|         804|   -4.247698|
|         805|   -4.247493|
|         806|   -4.247836|
|         807|   -4.248722|
|         808|   -4.250152|
|         809|   -4.252125|
|         810|   -4.254637|
+-----------------------------------------------------------------------+
|        File Writing Summary       |              Filename             |
+-----------------------------------------------------------------------+
|SU2 ASCII restart                  |restart.csv                        |
|Paraview Multiblock                |flow.vtm                           |
+-----------------------------------------------------------------------+
+-------------------------+
|  Inner_Iter|      rms[P]|
+-------------------------+
|         811|   -4.257685|
|         812|   -4.261282|
|         813|   -4.265473|
|         814|   -4.270229|
|         815|   -4.275526|
|         816|   -4.281370|
|         817|   -4.287756|
|         818|   -4.294683|
|         819|   -4.302147|
|         820|   -4.310142|
+-----------------------------------------------------------------------+
|        File Writing Summary       |              Filename             |
+-----------------------------------------------------------------------+
|SU2 ASCII restart                  |restart.csv                        |
|Paraview Multiblock                |flow.vtm                           |
+-----------------------------------------------------------------------+
+-------------------------+
|  Inner_Iter|      rms[P]|
+-------------------------+
|         821|   -4.318660|
|         822|   -4.327697|
|         823|   -4.337243|
|         824|   -4.347293|
|         825|   -4.357839|
|         826|   -4.368875|
|         827|   -4.380396|
|         828|   -4.392399|
|         829|   -4.404883|
|         830|   -4.417847|
+-----------------------------------------------------------------------+
|        File Writing Summary       |              Filename             |
+-----------------------------------------------------------------------+
|SU2 ASCII restart                  |restart.csv                        |
|Paraview Multiblock                |flow.vtm                           |
+-----------------------------------------------------------------------+
+-------------------------+
|  Inner_Iter|      rms[P]|
+-------------------------+
|         831|   -4.431299|
|         832|   -4.445250|
|         833|   -4.459674|
|         834|   -4.474584|
|         835|   -4.489996|
|         836|   -4.505921|
|         837|   -4.522365|
|         838|   -4.539321|
|         839|   -4.556796|
|         840|   -4.574751|
+-----------------------------------------------------------------------+
|        File Writing Summary       |              Filename             |
+-----------------------------------------------------------------------+
|SU2 ASCII restart                  |restart.csv                        |
|Paraview Multiblock                |flow.vtm                           |
+-----------------------------------------------------------------------+
+-------------------------+
|  Inner_Iter|      rms[P]|
+-------------------------+
|         841|   -4.593071|
|         842|   -4.611639|
|         843|   -4.630694|
|         844|   -4.649546|
|         845|   -4.668160|
|         846|   -4.686224|
|         847|   -4.703279|
|         848|   -4.718790|
|         849|   -4.732136|
|         850|   -4.742578|
+-----------------------------------------------------------------------+
|        File Writing Summary       |              Filename             |
+-----------------------------------------------------------------------+
|SU2 ASCII restart                  |restart.csv                        |
|Paraview Multiblock                |flow.vtm                           |
+-----------------------------------------------------------------------+
+-------------------------+
|  Inner_Iter|      rms[P]|
+-------------------------+
|         851|   -4.749293|
|         852|   -4.751560|
|         853|   -4.749007|
|         854|   -4.741316|
|         855|   -4.728630|
|         856|   -4.711493|
|         857|   -4.690693|
|         858|   -4.667062|
|         859|   -4.641418|
|         860|   -4.614491|
+-----------------------------------------------------------------------+
|        File Writing Summary       |              Filename             |
+-----------------------------------------------------------------------+
|SU2 ASCII restart                  |restart.csv                        |
|Paraview Multiblock                |flow.vtm                           |
+-----------------------------------------------------------------------+
+-------------------------+
|  Inner_Iter|      rms[P]|
+-------------------------+
|         861|   -4.586893|
|         862|   -4.559019|
|         863|   -4.531311|
|         864|   -4.504094|
|         865|   -4.478141|
|         866|   -4.454154|
|         867|   -4.429692|
|         868|   -4.405774|
|         869|   -4.383059|
|         870|   -4.361850|
+-----------------------------------------------------------------------+
|        File Writing Summary       |              Filename             |
+-----------------------------------------------------------------------+
|SU2 ASCII restart                  |restart.csv                        |
|Paraview Multiblock                |flow.vtm                           |
+-----------------------------------------------------------------------+
+-------------------------+
|  Inner_Iter|      rms[P]|
+-------------------------+
|         871|   -4.342235|
|         872|   -4.324242|
|         873|   -4.307856|
|         874|   -4.293069|
|         875|   -4.279895|
|         876|   -4.268360|
|         877|   -4.258491|
|         878|   -4.250378|
|         879|   -4.243991|
|         880|   -4.239377|
+-----------------------------------------------------------------------+
|        File Writing Summary       |              Filename             |
+-----------------------------------------------------------------------+
|SU2 ASCII restart                  |restart.csv                        |
|Paraview Multiblock                |flow.vtm                           |
+-----------------------------------------------------------------------+
+-------------------------+
|  Inner_Iter|      rms[P]|
+-------------------------+
|         881|   -4.236595|
|         882|   -4.235669|
|         883|   -4.236668|
|         884|   -4.239530|
|         885|   -4.244247|
|         886|   -4.250810|
|         887|   -4.259179|
|         888|   -4.269283|
|         889|   -4.281149|
|         890|   -4.295216|
+-----------------------------------------------------------------------+
|        File Writing Summary       |              Filename             |
+-----------------------------------------------------------------------+
|SU2 ASCII restart                  |restart.csv                        |
|Paraview Multiblock                |flow.vtm                           |
+-----------------------------------------------------------------------+
+-------------------------+
|  Inner_Iter|      rms[P]|
+-------------------------+
|         891|   -4.310794|
|         892|   -4.327992|
|         893|   -4.347035|
|         894|   -4.368120|
|         895|   -4.391512|
|         896|   -4.417352|
|         897|   -4.445830|
|         898|   -4.477018|
|         899|   -4.510814|
|         900|   -4.546984|
+-----------------------------------------------------------------------+
|        File Writing Summary       |              Filename             |
+-----------------------------------------------------------------------+
|SU2 ASCII restart                  |restart.csv                        |
|Paraview Multiblock                |flow.vtm                           |
+-----------------------------------------------------------------------+
+-------------------------+
|  Inner_Iter|      rms[P]|
+-------------------------+
|         901|   -4.584966|
|         902|   -4.623729|
|         903|   -4.661078|
|         904|   -4.693770|
|         905|   -4.717937|
|         906|   -4.731228|
|         907|   -4.729578|
|         908|   -4.712736|
|         909|   -4.684506|
|         910|   -4.649272|
+-----------------------------------------------------------------------+
|        File Writing Summary       |              Filename             |
+-----------------------------------------------------------------------+
|SU2 ASCII restart                  |restart.csv                        |
|Paraview Multiblock                |flow.vtm                           |
+-----------------------------------------------------------------------+
+-------------------------+
|  Inner_Iter|      rms[P]|
+-------------------------+
|         911|   -4.610706|
|         912|   -4.571711|
|         913|   -4.533831|
|         914|   -4.498442|
|         915|   -4.466184|
|         916|   -4.437105|
|         917|   -4.411273|
|         918|   -4.388674|
|         919|   -4.369143|
|         920|   -4.352648|
+-----------------------------------------------------------------------+
|        File Writing Summary       |              Filename             |
+-----------------------------------------------------------------------+
|SU2 ASCII restart                  |restart.csv                        |
|Paraview Multiblock                |flow.vtm                           |
+-----------------------------------------------------------------------+
+-------------------------+
|  Inner_Iter|      rms[P]|
+-------------------------+
|         921|   -4.338950|
|         922|   -4.327736|
|         923|   -4.318740|
|         924|   -4.311759|
|         925|   -4.306670|
|         926|   -4.303414|
|         927|   -4.301954|
|         928|   -4.302246|
|         929|   -4.304216|
|         930|   -4.307803|
+-----------------------------------------------------------------------+
|        File Writing Summary       |              Filename             |
+-----------------------------------------------------------------------+
|SU2 ASCII restart                  |restart.csv                        |
|Paraview Multiblock                |flow.vtm                           |
+-----------------------------------------------------------------------+
+-------------------------+
|  Inner_Iter|      rms[P]|
+-------------------------+
|         931|   -4.312910|
|         932|   -4.319656|
|         933|   -4.327982|
|         934|   -4.337717|
|         935|   -4.348783|
|         936|   -4.361088|
|         937|   -4.374520|
|         938|   -4.388958|
|         939|   -4.404290|
|         940|   -4.420397|
+-----------------------------------------------------------------------+
|        File Writing Summary       |              Filename             |
+-----------------------------------------------------------------------+
|SU2 ASCII restart                  |restart.csv                        |
|Paraview Multiblock                |flow.vtm                           |
+-----------------------------------------------------------------------+
+-------------------------+
|  Inner_Iter|      rms[P]|
+-------------------------+
|         941|   -4.437167|
|         942|   -4.454549|
|         943|   -4.472526|
|         944|   -4.491125|
|         945|   -4.510501|
|         946|   -4.530900|
|         947|   -4.552282|
|         948|   -4.575043|
|         949|   -4.599585|
|         950|   -4.626258|
+-----------------------------------------------------------------------+
|        File Writing Summary       |              Filename             |
+-----------------------------------------------------------------------+
|SU2 ASCII restart                  |restart.csv                        |
|Paraview Multiblock                |flow.vtm                           |
+-----------------------------------------------------------------------+
+-------------------------+
|  Inner_Iter|      rms[P]|
+-------------------------+
|         951|   -4.655315|
|         952|   -4.686914|
|         953|   -4.721012|
|         954|   -4.756759|
|         955|   -4.792508|
|         956|   -4.826342|
|         957|   -4.853902|
|         958|   -4.869387|
|         959|   -4.869467|
|         960|   -4.853128|
+-----------------------------------------------------------------------+
|        File Writing Summary       |              Filename             |
+-----------------------------------------------------------------------+
|SU2 ASCII restart                  |restart.csv                        |
|Paraview Multiblock                |flow.vtm                           |
+-----------------------------------------------------------------------+
+-------------------------+
|  Inner_Iter|      rms[P]|
+-------------------------+
|         961|   -4.823258|
|         962|   -4.784995|
|         963|   -4.743116|
|         964|   -4.700942|
|         965|   -4.660412|
|         966|   -4.622559|
|         967|   -4.587726|
|         968|   -4.556036|
|         969|   -4.527545|
|         970|   -4.502129|
+-----------------------------------------------------------------------+
|        File Writing Summary       |              Filename             |
+-----------------------------------------------------------------------+
|SU2 ASCII restart                  |restart.csv                        |
|Paraview Multiblock                |flow.vtm                           |
+-----------------------------------------------------------------------+
+-------------------------+
|  Inner_Iter|      rms[P]|
+-------------------------+
|         971|   -4.479604|
|         972|   -4.459802|
|         973|   -4.442601|
|         974|   -4.427868|
|         975|   -4.415441|
|         976|   -4.405285|
|         977|   -4.397286|
|         978|   -4.391385|
|         979|   -4.387612|
|         980|   -4.385903|
+-----------------------------------------------------------------------+
|        File Writing Summary       |              Filename             |
+-----------------------------------------------------------------------+
|SU2 ASCII restart                  |restart.csv                        |
|Paraview Multiblock                |flow.vtm                           |
+-----------------------------------------------------------------------+
+-------------------------+
|  Inner_Iter|      rms[P]|
+-------------------------+
|         981|   -4.386261|
|         982|   -4.388684|
|         983|   -4.393246|
|         984|   -4.399972|
|         985|   -4.408942|
|         986|   -4.420303|
|         987|   -4.434160|
|         988|   -4.450601|
|         989|   -4.469844|
|         990|   -4.492058|
+-----------------------------------------------------------------------+
|        File Writing Summary       |              Filename             |
+-----------------------------------------------------------------------+
|SU2 ASCII restart                  |restart.csv                        |
|Paraview Multiblock                |flow.vtm                           |
+-----------------------------------------------------------------------+
+-------------------------+
|  Inner_Iter|      rms[P]|
+-------------------------+
|         991|   -4.517334|
|         992|   -4.545869|
|         993|   -4.577907|
|         994|   -4.613393|
|         995|   -4.652181|
|         996|   -4.693835|
|         997|   -4.736978|
|         998|   -4.779019|
|         999|   -4.815890|

----------------------------- Solver Exit -------------------------------

Maximum number of iterations reached (ITER = 1000) before convergence.
+-----------------------------------------------------------------------+
|      Convergence Field     |     Value    |   Criterion  |  Converged |
+-----------------------------------------------------------------------+
|                      rms[P]|      -4.81589|         < -12|          No|
|                      rms[U]|      -3.96727|         < -12|          No|
+-----------------------------------------------------------------------+
-------------------------------------------------------------------------
+-----------------------------------------------------------------------+
|        File Writing Summary       |              Filename             |
+-----------------------------------------------------------------------+
|SU2 ASCII restart                  |restart.csv                        |
|Paraview Multiblock                |flow.vtm                           |
+-----------------------------------------------------------------------+

--------------------------- Finalizing Solver ---------------------------
Deleted CNumerics container.
Deleted CIntegration container.
Deleted CSolver container.
Deleted CIteration container.
Deleted CInterface container.
Deleted CGeometry container.
Deleted CFreeFormDefBox class.
Deleted CSurfaceMovement class.
Deleted CVolumetricMovement class.
Deleted CConfig container.
Deleted nInst container.
Deleted COutput class.
-------------------------------------------------------------------------

------------------------- Exit Success (SU2_CFD) ------------------------

