
-------------------------------------------------------------------------
|    ___ _   _ ___                                                      |
|   / __| | | |_  )   Release 8.0.0 "Harrier"                           |
|   \__ \ |_| |/ /                                                      |
|   |___/\___//___|   Suite (Computational Fluid Dynamics Code)         |
|                                                                       |
-------------------------------------------------------------------------
| SU2 Project Website: https://su2code.github.io                        |
|                                                                       |
| The SU2 Project is maintained by the SU2 Foundation                   |
| (http://su2foundation.org)                                            |
-------------------------------------------------------------------------
| Copyright 2012-2023, SU2 Contributors                                 |
|                                                                       |
| SU2 is free software; you can redistribute it and/or                  |
| modify it under the terms of the GNU Lesser General Public            |
| License as published by the Free Software Foundation; either          |
| version 2.1 of the License, or (at your option) any later version.    |
|                                                                       |
| SU2 is distributed in the hope that it will be useful,                |
| but WITHOUT ANY WARRANTY; without even the implied warranty of        |
| MERCHANTABILITY or FITNESS FOR A PARTICULAR PURPOSE. See the GNU      |
| Lesser General Public License for more details.                       |
|                                                                       |
| You should have received a copy of the GNU Lesser General Public      |
| License along with SU2. If not, see <http://www.gnu.org/licenses/>.   |
-------------------------------------------------------------------------

Parsing config file for zone 0

----------------- Physical Case Definition ( Zone 0 ) -------------------
Incompressible RANS equations.
Turbulence model: Negative-Spalart-Allmaras
Hybrid RANS/LES: No Hybrid RANS/LES
Reading and writing ASCII SU2 native restart files.
Read flow solution from: restart.
Dimensional simulation.
The reference area is 1 m^2.
The semi-span will be computed using the max y(3D) value.
The reference length is 1 m.
Input mesh file name: mesh.su2

--------------- Space Numerical Integration ( Zone 0 ) ------------------
Flux difference splitting (FDS) upwind scheme for the flow inviscid terms.
Second order integration in space, with slope limiter.
Venkatakrishnan slope-limiting method, with constant: 0.05.
The reference element size is: 1. 
Average of gradients with correction (viscous flow terms).
Average of gradients with correction (viscous turbulence terms).
Gradient for upwind reconstruction: Green-Gauss.
Gradient for viscous and source terms: Green-Gauss.

--------------- Time Numerical Integration  ( Zone 0 ) ------------------
Local time stepping (steady state simulation).
Euler implicit method for the flow equations.
FGMRES is used for solving the linear system.
Using a LU-SGS preconditioning.
Convergence criteria of the linear solver: 1e-10.
Max number of linear iterations: 10.
No CFL adaptation.
Courant-Friedrichs-Lewy number:       10
Euler implicit time integration for the turbulence model.

------------------ Convergence Criteria  ( Zone 0 ) ---------------------
Maximum number of solver subiterations: 1000.
Begin convergence monitoring at iteration 10.
Residual minimum value: 1e-12.
Cauchy series min. value: 1e-10.
Number of Cauchy elements: 100.
Begin windowed time average at iteration 0.

-------------------- Output Information ( Zone 0 ) ----------------------
File writing frequency: 
+------------------------------------+
|                     File| Frequency|
+------------------------------------+
|            RESTART_ASCII|        10|
|      PARAVIEW_MULTIBLOCK|        10|
+------------------------------------+
Writing the convergence history file every 1 inner iterations.
Writing the screen convergence history every 1 inner iterations.
The tabular file format is CSV (.csv).
Convergence history file name: history.
Forces breakdown file name: forces_breakdown.dat.
Surface file name: surface.
Volume file name: flow.
Restart file name: restart.

------------- Config File Boundary Information ( Zone 0 ) ---------------
+-----------------------------------------------------------------------+
|                        Marker Type|                        Marker Name|
+-----------------------------------------------------------------------+
|                     Symmetry plane|                               axis|
+-----------------------------------------------------------------------+
|                     Inlet boundary|                          gas_inlet|
|                                   |                    air_axial_inlet|
+-----------------------------------------------------------------------+
|                    Outlet boundary|                             outlet|
+-----------------------------------------------------------------------+
|                    Isothermal wall|                               wall|
+-----------------------------------------------------------------------+

-------------------- Output Preprocessing ( Zone 0 ) --------------------

WARNING: SURFACE_PRESSURE_DROP can only be computed for at least 2 surfaces (outlet, inlet, ...)

  Info: Ignoring the following screen output fields:
  RMS_DENSITY
Screen output fields: INNER_ITER, RMS_PRESSURE
History output group(s): ITER, RMS_RES
Convergence field(s): RMS_PRESSURE, RMS_VELOCITY-X
Warning: No (valid) fields chosen for time convergence monitoring. Time convergence monitoring inactive.
Volume output fields: RESIDUAL, SOLUTION, PRIMITIVE, COORDINATES

------------------- Geometry Preprocessing ( Zone 0 ) -------------------
Two dimensional problem.
3510 grid points.
3364 volume elements.
5 surface markers.
29 boundary elements in index 0 (Marker = gas_inlet).
29 boundary elements in index 1 (Marker = air_axial_inlet).
29 boundary elements in index 2 (Marker = outlet).
87 boundary elements in index 3 (Marker = axis).
116 boundary elements in index 4 (Marker = wall).
3364 quadrilaterals.
Setting point connectivity.
Renumbering points (Reverse Cuthill McKee Ordering).
Recomputing point connectivity.
Setting element connectivity.
Checking the numerical grid orientation.
There has been a re-orientation of 2523 QUADRILATERAL volume elements.
There has been a re-orientation of 290 LINE surface elements.
Identifying edges and vertices.
Setting the control volume structure.
Area of the computational grid: 0.002925.
Searching for the closest normal neighbors to the surfaces.
Storing a mapping from global to local point index.
Compute the surface curvature.
Max K: 5722.1. Mean K: 45.6971. Standard deviation K: 397.615.
Checking for periodicity.
Computing mesh quality statistics for the dual control volumes.
+--------------------------------------------------------------+
|           Mesh Quality Metric|        Minimum|        Maximum|
+--------------------------------------------------------------+
|    Orthogonality Angle (deg.)|             90|             90|
|     CV Face Area Aspect Ratio|        1.00061|         217.83|
|           CV Sub-Volume Ratio|              1|        4.90961|
+--------------------------------------------------------------+
Finding max control volume width.
Wetted area = 0 m.
Area projection in the x-plane = 0 m, y-plane = 0 m.
Max. coordinate in the x-direction = -1e+10 m, y-direction = -1e+10 m.
Min. coordinate in the x-direction = 1e+10 m, y-direction = 1e+10 m.
Checking if Euler & Symmetry markers are straight/plane:
Boundary marker axis is a single straight.
Computing wall distances.

-------------------- Solver Preprocessing ( Zone 0 ) --------------------
 Warning: There is no restart file (flow.meta).
 Computation will continue without updating metadata parameters.
Incompressible flow: rho_ref, vel_ref, temp_ref, p_ref
are set to 1.0 in order to perform a dimensional calculation.
Force coefficients computed using initial values.
The reference area for force coeffs. is 1 m^2.
The reference length for force coeffs. is 1 m.
The pressure is decomposed into thermodynamic and dynamic components.
The initial value of the dynamic pressure is 0.
Mach number: 0.00301242, computed using the Bulk modulus.
For external flows, the initial state is imposed at the far-field.
Angle of attack (deg): 0, computed using the initial velocity.
Side slip angle (deg): 0, computed using the initial velocity.
Reynolds number per meter: 75093.2, computed using initial values.
Reynolds number is a byproduct of inputs only (not used internally).
SI units only. The grid should be dimensional (meters).
Energy equation is active and decoupled.

-- Models:
+------------------------------------------------------------------------------+
|          Viscosity Model|        Conductivity Model|              Fluid Model|
+------------------------------------------------------------------------------+
|       CONSTANT_VISCOSITY|                  CONSTANT|         CONSTANT_DENSITY|
+------------------------------------------------------------------------------+
-- Fluid properties:
+------------------------------------------------------------------------------+
|                  Name|    Dim. value|    Ref. value|      Unit|Non-dim. value|
+------------------------------------------------------------------------------+
|             Viscosity|     1.716e-05|             1|   N.s/m^2|     1.716e-05|
+------------------------------------------------------------------------------+
|       Molecular Cond.|        0.0257|             1|   W/m^2.K|        0.0257|
+------------------------------------------------------------------------------+
|       Spec. Heat (Cp)|          1001|             1|  N.m/kg.K|          1001|
|          Bulk Modulus|        142000|             1|        Pa|        142000|
+------------------------------------------------------------------------------+
-- Initial and free-stream conditions:
+------------------------------------------------------------------------------+
|                  Name|    Dim. value|    Ref. value|      Unit|Non-dim. value|
+------------------------------------------------------------------------------+
|      Dynamic Pressure|             0|             1|        Pa|             0|
|        Total Pressure|        0.6443|             1|        Pa|        0.6443|
|               Density|        1.2886|             1|    kg/m^3|        1.2886|
|           Temperature|        288.15|             1|         K|        288.15|
|            Velocity-X|             1|             1|       m/s|             1|
|            Velocity-Y|             0|             1|       m/s|             0|
|    Velocity Magnitude|             1|             1|       m/s|             1|
+------------------------------------------------------------------------------+
|             Viscosity|     1.716e-05|             1|   N.s/m^2|     1.716e-05|
|          Conductivity|             -|             1|   W/m^2.K|             -|
|     Turb. Kin. Energy|       0.00375|             1|   m^2/s^2|       0.00375|
|     Spec. Dissipation|         28.16|             1|       1/s|         28.16|
+------------------------------------------------------------------------------+
|           Mach Number|             -|             -|         -|    0.00301242|
|       Reynolds Number|             -|             -|         -|       75093.2|
+------------------------------------------------------------------------------+
Initialize Jacobian structure (Navier-Stokes). MG level: 0.
Initialize Jacobian structure (SA model).

------------------- Numerics Preprocessing ( Zone 0 ) -------------------

----------------- Integration Preprocessing ( Zone 0 ) ------------------

------------------- Iteration Preprocessing ( Zone 0 ) ------------------
Euler/Navier-Stokes/RANS fluid iteration.

------------------------------ Begin Solver -----------------------------

Simulation Run using the Single-zone Driver
+-------------------------+
|  Inner_Iter|      rms[P]|
+-------------------------+
|           0|   -7.320644|
|           1|   -7.520039|
|           2|   -7.583472|
|           3|   -7.617706|
|           4|   -7.643366|
|           5|   -7.660776|
|           6|   -7.672270|
|           7|   -7.681838|
|           8|   -7.693339|
|           9|   -7.708295|
|          10|   -7.725202|
+-----------------------------------------------------------------------+
|        File Writing Summary       |              Filename             |
+-----------------------------------------------------------------------+
|SU2 ASCII restart                  |restart.csv                        |
|Paraview Multiblock                |flow.vtm                           |
+-----------------------------------------------------------------------+
+-------------------------+
|  Inner_Iter|      rms[P]|
+-------------------------+
|          11|   -7.740742|
|          12|   -7.752112|
|          13|   -7.758967|
|          14|   -7.763507|
|          15|   -7.768919|
|          16|   -7.777677|
|          17|   -7.790693|
|          18|   -7.807282|
|          19|   -7.825620|
|          20|   -7.843484|
+-----------------------------------------------------------------------+
|        File Writing Summary       |              Filename             |
+-----------------------------------------------------------------------+
|SU2 ASCII restart                  |restart.csv                        |
|Paraview Multiblock                |flow.vtm                           |
+-----------------------------------------------------------------------+
+-------------------------+
|  Inner_Iter|      rms[P]|
+-------------------------+
|          21|   -7.859069|
|          22|   -7.871535|
|          23|   -7.881016|
|          24|   -7.888186|
|          25|   -7.893782|
|          26|   -7.898360|
|          27|   -7.902319|
|          28|   -7.906024|
|          29|   -7.909897|
|          30|   -7.914389|
+-----------------------------------------------------------------------+
|        File Writing Summary       |              Filename             |
+-----------------------------------------------------------------------+
|SU2 ASCII restart                  |restart.csv                        |
|Paraview Multiblock                |flow.vtm                           |
+-----------------------------------------------------------------------+
+-------------------------+
|  Inner_Iter|      rms[P]|
+-------------------------+
|          31|   -7.919881|
|          32|   -7.926560|
|          33|   -7.934352|
|          34|   -7.942898|
|          35|   -7.951607|
|          36|   -7.959754|
|          37|   -7.966609|
|          38|   -7.971570|
|          39|   -7.974269|
|          40|   -7.974630|
+-----------------------------------------------------------------------+
|        File Writing Summary       |              Filename             |
+-----------------------------------------------------------------------+
|SU2 ASCII restart                  |restart.csv                        |
|Paraview Multiblock                |flow.vtm                           |
+-----------------------------------------------------------------------+
+-------------------------+
|  Inner_Iter|      rms[P]|
+-------------------------+
|          41|   -7.972852|
|          42|   -7.969346|
|          43|   -7.964653|
|          44|   -7.959352|
|          45|   -7.953997|
|          46|   -7.949075|
|          47|   -7.944989|
|          48|   -7.942052|
|          49|   -7.940494|
|          50|   -7.940481|
+-----------------------------------------------------------------------+
|        File Writing Summary       |              Filename             |
+-----------------------------------------------------------------------+
|SU2 ASCII restart                  |restart.csv                        |
|Paraview Multiblock                |flow.vtm                           |
+-----------------------------------------------------------------------+
+-------------------------+
|  Inner_Iter|      rms[P]|
+-------------------------+
|          51|   -7.942120|
|          52|   -7.945480|
|          53|   -7.950599|
|          54|   -7.957492|
|          55|   -7.966152|
|          56|   -7.976548|
|          57|   -7.988618|
|          58|   -8.002263|
|          59|   -8.017334|
|          60|   -8.033624|
+-----------------------------------------------------------------------+
|        File Writing Summary       |              Filename             |
+-----------------------------------------------------------------------+
|SU2 ASCII restart                  |restart.csv                        |
|Paraview Multiblock                |flow.vtm                           |
+-----------------------------------------------------------------------+
+-------------------------+
|  Inner_Iter|      rms[P]|
+-------------------------+
|          61|   -8.050862|
|          62|   -8.068706|
|          63|   -8.086751|
|          64|   -8.104535|
|          65|   -8.121576|
|          66|   -8.137421|
|          67|   -8.151706|
|          68|   -8.164224|
|          69|   -8.174978|
|          70|   -8.184197|
+-----------------------------------------------------------------------+
|        File Writing Summary       |              Filename             |
+-----------------------------------------------------------------------+
|SU2 ASCII restart                  |restart.csv                        |
|Paraview Multiblock                |flow.vtm                           |
+-----------------------------------------------------------------------+
+-------------------------+
|  Inner_Iter|      rms[P]|
+-------------------------+
|          71|   -8.192310|
|          72|   -8.199889|
|          73|   -8.207573|
|          74|   -8.215995|
|          75|   -8.225725|
|          76|   -8.237230|
|          77|   -8.250854|
|          78|   -8.266800|
|          79|   -8.285124|
|          80|   -8.305715|
+-----------------------------------------------------------------------+
|        File Writing Summary       |              Filename             |
+-----------------------------------------------------------------------+
|SU2 ASCII restart                  |restart.csv                        |
|Paraview Multiblock                |flow.vtm                           |
+-----------------------------------------------------------------------+
+-------------------------+
|  Inner_Iter|      rms[P]|
+-------------------------+
|          81|   -8.328272|
|          82|   -8.352274|
|          83|   -8.376945|
|          84|   -8.401235|
|          85|   -8.423843|
|          86|   -8.443319|
|          87|   -8.458264|
|          88|   -8.467615|
|          89|   -8.470890|
|          90|   -8.468308|
+-----------------------------------------------------------------------+
|        File Writing Summary       |              Filename             |
+-----------------------------------------------------------------------+
|SU2 ASCII restart                  |restart.csv                        |
|Paraview Multiblock                |flow.vtm                           |
+-----------------------------------------------------------------------+
+-------------------------+
|  Inner_Iter|      rms[P]|
+-------------------------+
|          91|   -8.460648|
|          92|   -8.449049|
|          93|   -8.434715|
|          94|   -8.418728|
|          95|   -8.401953|
|          96|   -8.385025|
|          97|   -8.368385|
|          98|   -8.352319|
|          99|   -8.337000|
|         100|   -8.322523|
+-----------------------------------------------------------------------+
|        File Writing Summary       |              Filename             |
+-----------------------------------------------------------------------+
|SU2 ASCII restart                  |restart.csv                        |
|Paraview Multiblock                |flow.vtm                           |
+-----------------------------------------------------------------------+
+-------------------------+
|  Inner_Iter|      rms[P]|
+-------------------------+
|         101|   -8.308934|
|         102|   -8.296243|
|         103|   -8.284443|
|         104|   -8.273512|
|         105|   -8.263425|
|         106|   -8.254148|
|         107|   -8.245646|
|         108|   -8.237880|
|         109|   -8.230807|
|         110|   -8.224381|
+-----------------------------------------------------------------------+
|        File Writing Summary       |              Filename             |
+-----------------------------------------------------------------------+
|SU2 ASCII restart                  |restart.csv                        |
|Paraview Multiblock                |flow.vtm                           |
+-----------------------------------------------------------------------+
+-------------------------+
|  Inner_Iter|      rms[P]|
+-------------------------+
|         111|   -8.218552|
|         112|   -8.213264|
|         113|   -8.208461|
|         114|   -8.204083|
|         115|   -8.200073|
|         116|   -8.196374|
|         117|   -8.192937|
|         118|   -8.189714|
|         119|   -8.186668|
|         120|   -8.183767|
+-----------------------------------------------------------------------+
|        File Writing Summary       |              Filename             |
+-----------------------------------------------------------------------+
|SU2 ASCII restart                  |restart.csv                        |
|Paraview Multiblock                |flow.vtm                           |
+-----------------------------------------------------------------------+
+-------------------------+
|  Inner_Iter|      rms[P]|
+-------------------------+
|         121|   -8.180986|
|         122|   -8.178305|
|         123|   -8.175708|
|         124|   -8.173181|
|         125|   -8.170710|
|         126|   -8.168283|
|         127|   -8.165885|
|         128|   -8.163498|
|         129|   -8.161103|
|         130|   -8.158677|
+-----------------------------------------------------------------------+
|        File Writing Summary       |              Filename             |
+-----------------------------------------------------------------------+
|SU2 ASCII restart                  |restart.csv                        |
|Paraview Multiblock                |flow.vtm                           |
+-----------------------------------------------------------------------+
+-------------------------+
|  Inner_Iter|      rms[P]|
+-------------------------+
|         131|   -8.156196|
|         132|   -8.153635|
|         133|   -8.150966|
|         134|   -8.148163|
|         135|   -8.145200|
|         136|   -8.142054|
|         137|   -8.138704|
|         138|   -8.135137|
|         139|   -8.131342|
|         140|   -8.127318|
+-----------------------------------------------------------------------+
|        File Writing Summary       |              Filename             |
+-----------------------------------------------------------------------+
|SU2 ASCII restart                  |restart.csv                        |
|Paraview Multiblock                |flow.vtm                           |
+-----------------------------------------------------------------------+
+-------------------------+
|  Inner_Iter|      rms[P]|
+-------------------------+
|         141|   -8.123072|
|         142|   -8.118618|
|         143|   -8.113980|
|         144|   -8.109189|
|         145|   -8.104280|
|         146|   -8.099296|
|         147|   -8.094281|
|         148|   -8.089279|
|         149|   -8.084337|
|         150|   -8.079492|
+-----------------------------------------------------------------------+
|        File Writing Summary       |              Filename             |
+-----------------------------------------------------------------------+
|SU2 ASCII restart                  |restart.csv                        |
|Paraview Multiblock                |flow.vtm                           |
+-----------------------------------------------------------------------+
+-------------------------+
|  Inner_Iter|      rms[P]|
+-------------------------+
|         151|   -8.074785|
|         152|   -8.070259|
|         153|   -8.065942|
|         154|   -8.061856|
|         155|   -8.058025|
|         156|   -8.054469|
|         157|   -8.051204|
|         158|   -8.048242|
|         159|   -8.045593|
|         160|   -8.043264|
+-----------------------------------------------------------------------+
|        File Writing Summary       |              Filename             |
+-----------------------------------------------------------------------+
|SU2 ASCII restart                  |restart.csv                        |
|Paraview Multiblock                |flow.vtm                           |
+-----------------------------------------------------------------------+
+-------------------------+
|  Inner_Iter|      rms[P]|
+-------------------------+
|         161|   -8.041261|
|         162|   -8.039587|
|         163|   -8.038245|
|         164|   -8.037235|
|         165|   -8.036556|
|         166|   -8.036204|
|         167|   -8.036172|
|         168|   -8.036453|
|         169|   -8.037036|
|         170|   -8.037906|
+-----------------------------------------------------------------------+
|        File Writing Summary       |              Filename             |
+-----------------------------------------------------------------------+
|SU2 ASCII restart                  |restart.csv                        |
|Paraview Multiblock                |flow.vtm                           |
+-----------------------------------------------------------------------+
+-------------------------+
|  Inner_Iter|      rms[P]|
+-------------------------+
|         171|   -8.039048|
|         172|   -8.040443|
|         173|   -8.042071|
|         174|   -8.043909|
|         175|   -8.045932|
|         176|   -8.048114|
|         177|   -8.050429|
|         178|   -8.052848|
|         179|   -8.055345|
|         180|   -8.057892|
+-----------------------------------------------------------------------+
|        File Writing Summary       |              Filename             |
+-----------------------------------------------------------------------+
|SU2 ASCII restart                  |restart.csv                        |
|Paraview Multiblock                |flow.vtm                           |
+-----------------------------------------------------------------------+
+-------------------------+
|  Inner_Iter|      rms[P]|
+-------------------------+
|         181|   -8.060461|
|         182|   -8.063026|
|         183|   -8.065568|
|         184|   -8.068058|
|         185|   -8.070478|
|         186|   -8.072813|
|         187|   -8.075047|
|         188|   -8.077171|
|         189|   -8.079182|
|         190|   -8.081080|
+-----------------------------------------------------------------------+
|        File Writing Summary       |              Filename             |
+-----------------------------------------------------------------------+
|SU2 ASCII restart                  |restart.csv                        |
|Paraview Multiblock                |flow.vtm                           |
+-----------------------------------------------------------------------+
+-------------------------+
|  Inner_Iter|      rms[P]|
+-------------------------+
|         191|   -8.082871|
|         192|   -8.084563|
|         193|   -8.086170|
|         194|   -8.087709|
|         195|   -8.089202|
|         196|   -8.090673|
|         197|   -8.092150|
|         198|   -8.093660|
|         199|   -8.095233|
|         200|   -8.096896|
+-----------------------------------------------------------------------+
|        File Writing Summary       |              Filename             |
+-----------------------------------------------------------------------+
|SU2 ASCII restart                  |restart.csv                        |
|Paraview Multiblock                |flow.vtm                           |
+-----------------------------------------------------------------------+
+-------------------------+
|  Inner_Iter|      rms[P]|
+-------------------------+
|         201|   -8.098676|
|         202|   -8.100598|
|         203|   -8.102685|
|         204|   -8.104955|
|         205|   -8.107422|
|         206|   -8.110096|
|         207|   -8.112983|
|         208|   -8.116082|
|         209|   -8.119389|
|         210|   -8.122894|
+-----------------------------------------------------------------------+
|        File Writing Summary       |              Filename             |
+-----------------------------------------------------------------------+
|SU2 ASCII restart                  |restart.csv                        |
|Paraview Multiblock                |flow.vtm                           |
+-----------------------------------------------------------------------+
+-------------------------+
|  Inner_Iter|      rms[P]|
+-------------------------+
|         211|   -8.126581|
|         212|   -8.130431|
|         213|   -8.134421|
|         214|   -8.138525|
|         215|   -8.142715|
|         216|   -8.146960|
|         217|   -8.151233|
|         218|   -8.155505|
|         219|   -8.159751|
|         220|   -8.163950|
+-----------------------------------------------------------------------+
|        File Writing Summary       |              Filename             |
+-----------------------------------------------------------------------+
|SU2 ASCII restart                  |restart.csv                        |
|Paraview Multiblock                |flow.vtm                           |
+-----------------------------------------------------------------------+
+-------------------------+
|  Inner_Iter|      rms[P]|
+-------------------------+
|         221|   -8.168087|
|         222|   -8.172151|
|         223|   -8.176140|
|         224|   -8.180060|
|         225|   -8.183922|
|         226|   -8.187747|
|         227|   -8.191560|
|         228|   -8.195394|
|         229|   -8.199287|
|         230|   -8.203278|
+-----------------------------------------------------------------------+
|        File Writing Summary       |              Filename             |
+-----------------------------------------------------------------------+
|SU2 ASCII restart                  |restart.csv                        |
|Paraview Multiblock                |flow.vtm                           |
+-----------------------------------------------------------------------+
+-------------------------+
|  Inner_Iter|      rms[P]|
+-------------------------+
|         231|   -8.207413|
|         232|   -8.211735|
|         233|   -8.216289|
|         234|   -8.221120|
|         235|   -8.226270|
|         236|   -8.231778|
|         237|   -8.237679|
|         238|   -8.244007|
|         239|   -8.250788|
|         240|   -8.258047|
+-----------------------------------------------------------------------+
|        File Writing Summary       |              Filename             |
+-----------------------------------------------------------------------+
|SU2 ASCII restart                  |restart.csv                        |
|Paraview Multiblock                |flow.vtm                           |
+-----------------------------------------------------------------------+
+-------------------------+
|  Inner_Iter|      rms[P]|
+-------------------------+
|         241|   -8.265801|
|         242|   -8.274063|
|         243|   -8.282842|
|         244|   -8.292139|
|         245|   -8.301949|
|         246|   -8.312260|
|         247|   -8.323053|
|         248|   -8.334300|
|         249|   -8.345959|
|         250|   -8.357981|
+-----------------------------------------------------------------------+
|        File Writing Summary       |              Filename             |
+-----------------------------------------------------------------------+
|SU2 ASCII restart                  |restart.csv                        |
|Paraview Multiblock                |flow.vtm                           |
+-----------------------------------------------------------------------+
+-------------------------+
|  Inner_Iter|      rms[P]|
+-------------------------+
|         251|   -8.370298|
|         252|   -8.382826|
|         253|   -8.395462|
|         254|   -8.408080|
|         255|   -8.420537|
|         256|   -8.432656|
|         257|   -8.444236|
|         258|   -8.455054|
|         259|   -8.464872|
|         260|   -8.473447|
+-----------------------------------------------------------------------+
|        File Writing Summary       |              Filename             |
+-----------------------------------------------------------------------+
|SU2 ASCII restart                  |restart.csv                        |
|Paraview Multiblock                |flow.vtm                           |
+-----------------------------------------------------------------------+
+-------------------------+
|  Inner_Iter|      rms[P]|
+-------------------------+
|         261|   -8.480542|
|         262|   -8.485942|
|         263|   -8.489478|
|         264|   -8.491037|
|         265|   -8.490578|
|         266|   -8.488141|
|         267|   -8.483837|
|         268|   -8.477842|
|         269|   -8.470385|
|         270|   -8.461723|
+-----------------------------------------------------------------------+
|        File Writing Summary       |              Filename             |
+-----------------------------------------------------------------------+
|SU2 ASCII restart                  |restart.csv                        |
|Paraview Multiblock                |flow.vtm                           |
+-----------------------------------------------------------------------+
+-------------------------+
|  Inner_Iter|      rms[P]|
+-------------------------+
|         271|   -8.452127|
|         272|   -8.441863|
|         273|   -8.431186|
|         274|   -8.420328|
|         275|   -8.409492|
|         276|   -8.398856|
|         277|   -8.388571|
|         278|   -8.378763|
|         279|   -8.369535|
|         280|   -8.360972|
+-----------------------------------------------------------------------+
|        File Writing Summary       |              Filename             |
+-----------------------------------------------------------------------+
|SU2 ASCII restart                  |restart.csv                        |
|Paraview Multiblock                |flow.vtm                           |
+-----------------------------------------------------------------------+
+-------------------------+
|  Inner_Iter|      rms[P]|
+-------------------------+
|         281|   -8.353140|
|         282|   -8.346095|
|         283|   -8.339878|
|         284|   -8.334524|
|         285|   -8.330060|
|         286|   -8.326504|
|         287|   -8.323875|
|         288|   -8.322184|
|         289|   -8.321441|
|         290|   -8.321655|
+-----------------------------------------------------------------------+
|        File Writing Summary       |              Filename             |
+-----------------------------------------------------------------------+
|SU2 ASCII restart                  |restart.csv                        |
|Paraview Multiblock                |flow.vtm                           |
+-----------------------------------------------------------------------+
+-------------------------+
|  Inner_Iter|      rms[P]|
+-------------------------+
|         291|   -8.322834|
|         292|   -8.324985|
|         293|   -8.328115|
|         294|   -8.332231|
|         295|   -8.337342|
|         296|   -8.343456|
|         297|   -8.350586|
|         298|   -8.358742|
|         299|   -8.367938|
|         300|   -8.378190|
+-----------------------------------------------------------------------+
|        File Writing Summary       |              Filename             |
+-----------------------------------------------------------------------+
|SU2 ASCII restart                  |restart.csv                        |
|Paraview Multiblock                |flow.vtm                           |
+-----------------------------------------------------------------------+
+-------------------------+
|  Inner_Iter|      rms[P]|
+-------------------------+
|         301|   -8.389515|
|         302|   -8.401930|
|         303|   -8.415453|
|         304|   -8.430103|
|         305|   -8.445896|
|         306|   -8.462843|
|         307|   -8.480949|
|         308|   -8.500202|
|         309|   -8.520575|
|         310|   -8.542007|
+-----------------------------------------------------------------------+
|        File Writing Summary       |              Filename             |
+-----------------------------------------------------------------------+
|SU2 ASCII restart                  |restart.csv                        |
|Paraview Multiblock                |flow.vtm                           |
+-----------------------------------------------------------------------+
+-------------------------+
|  Inner_Iter|      rms[P]|
+-------------------------+
|         311|   -8.564390|
|         312|   -8.587551|
|         313|   -8.611227|
|         314|   -8.635029|
|         315|   -8.658410|
|         316|   -8.680632|
|         317|   -8.700765|
|         318|   -8.717713|
|         319|   -8.730327|
|         320|   -8.737583|
+-----------------------------------------------------------------------+
|        File Writing Summary       |              Filename             |
+-----------------------------------------------------------------------+
|SU2 ASCII restart                  |restart.csv                        |
|Paraview Multiblock                |flow.vtm                           |
+-----------------------------------------------------------------------+
+-------------------------+
|  Inner_Iter|      rms[P]|
+-------------------------+
|         321|   -8.738797|
|         322|   -8.733798|
|         323|   -8.722983|
|         324|   -8.707202|
|         325|   -8.687563|
|         326|   -8.665215|
|         327|   -8.641202|
|         328|   -8.616384|
|         329|   -8.591425|
|         330|   -8.566808|
+-----------------------------------------------------------------------+
|        File Writing Summary       |              Filename             |
+-----------------------------------------------------------------------+
|SU2 ASCII restart                  |restart.csv                        |
|Paraview Multiblock                |flow.vtm                           |
+-----------------------------------------------------------------------+
+-------------------------+
|  Inner_Iter|      rms[P]|
+-------------------------+
|         331|   -8.542869|
|         332|   -8.519834|
|         333|   -8.497847|
|         334|   -8.476993|
|         335|   -8.457316|
|         336|   -8.438836|
|         337|   -8.421550|
|         338|   -8.405447|
|         339|   -8.390507|
|         340|   -8.376707|
+-----------------------------------------------------------------------+
|        File Writing Summary       |              Filename             |
+-----------------------------------------------------------------------+
|SU2 ASCII restart                  |restart.csv                        |
|Paraview Multiblock                |flow.vtm                           |
+-----------------------------------------------------------------------+
+-------------------------+
|  Inner_Iter|      rms[P]|
+-------------------------+
|         341|   -8.364022|
|         342|   -8.352427|
|         343|   -8.341897|
|         344|   -8.332408|
|         345|   -8.323938|
|         346|   -8.316466|
|         347|   -8.309974|
|         348|   -8.304446|
|         349|   -8.299866|
|         350|   -8.296222|
+-----------------------------------------------------------------------+
|        File Writing Summary       |              Filename             |
+-----------------------------------------------------------------------+
|SU2 ASCII restart                  |restart.csv                        |
|Paraview Multiblock                |flow.vtm                           |
+-----------------------------------------------------------------------+
+-------------------------+
|  Inner_Iter|      rms[P]|
+-------------------------+
|         351|   -8.293502|
|         352|   -8.291696|
|         353|   -8.290794|
|         354|   -8.290791|
|         355|   -8.291680|
|         356|   -8.293454|
|         357|   -8.296108|
|         358|   -8.299637|
|         359|   -8.304033|
|         360|   -8.309291|
+-----------------------------------------------------------------------+
|        File Writing Summary       |              Filename             |
+-----------------------------------------------------------------------+
|SU2 ASCII restart                  |restart.csv                        |
|Paraview Multiblock                |flow.vtm                           |
+-----------------------------------------------------------------------+
+-------------------------+
|  Inner_Iter|      rms[P]|
+-------------------------+
|         361|   -8.315400|
|         362|   -8.322349|
|         363|   -8.330121|
|         364|   -8.338695|
|         365|   -8.348041|
|         366|   -8.358123|
|         367|   -8.368888|
|         368|   -8.380273|
|         369|   -8.392194|
|         370|   -8.404545|
+-----------------------------------------------------------------------+
|        File Writing Summary       |              Filename             |
+-----------------------------------------------------------------------+
|SU2 ASCII restart                  |restart.csv                        |
|Paraview Multiblock                |flow.vtm                           |
+-----------------------------------------------------------------------+
+-------------------------+
|  Inner_Iter|      rms[P]|
+-------------------------+
|         371|   -8.417193|
|         372|   -8.429975|
|         373|   -8.442695|
|         374|   -8.455119|
|         375|   -8.466982|
|         376|   -8.477988|
|         377|   -8.487820|
|         378|   -8.496163|
|         379|   -8.502717|
|         380|   -8.507232|
+-----------------------------------------------------------------------+
|        File Writing Summary       |              Filename             |
+-----------------------------------------------------------------------+
|SU2 ASCII restart                  |restart.csv                        |
|Paraview Multiblock                |flow.vtm                           |
+-----------------------------------------------------------------------+
+-------------------------+
|  Inner_Iter|      rms[P]|
+-------------------------+
|         381|   -8.509527|
|         382|   -8.509513|
|         383|   -8.507203|
|         384|   -8.502711|
|         385|   -8.496239|
|         386|   -8.488054|
|         387|   -8.478461|
|         388|   -8.467780|
|         389|   -8.456325|
|         390|   -8.444385|
+-----------------------------------------------------------------------+
|        File Writing Summary       |              Filename             |
+-----------------------------------------------------------------------+
|SU2 ASCII restart                  |restart.csv                        |
|Paraview Multiblock                |flow.vtm                           |
+-----------------------------------------------------------------------+
+-------------------------+
|  Inner_Iter|      rms[P]|
+-------------------------+
|         391|   -8.432221|
|         392|   -8.420056|
|         393|   -8.408081|
|         394|   -8.396450|
|         395|   -8.385290|
|         396|   -8.374703|
|         397|   -8.364769|
|         398|   -8.355550|
|         399|   -8.347091|
|         400|   -8.339428|
+-----------------------------------------------------------------------+
|        File Writing Summary       |              Filename             |
+-----------------------------------------------------------------------+
|SU2 ASCII restart                  |restart.csv                        |
|Paraview Multiblock                |flow.vtm                           |
+-----------------------------------------------------------------------+
+-------------------------+
|  Inner_Iter|      rms[P]|
+-------------------------+
|         401|   -8.332590|
|         402|   -8.326597|
|         403|   -8.321466|
|         404|   -8.317207|
|         405|   -8.313832|
|         406|   -8.311348|
|         407|   -8.309762|
|         408|   -8.309080|
|         409|   -8.309310|
|         410|   -8.310458|
+-----------------------------------------------------------------------+
|        File Writing Summary       |              Filename             |
+-----------------------------------------------------------------------+
|SU2 ASCII restart                  |restart.csv                        |
|Paraview Multiblock                |flow.vtm                           |
+-----------------------------------------------------------------------+
+-------------------------+
|  Inner_Iter|      rms[P]|
+-------------------------+
|         411|   -8.312531|
|         412|   -8.315538|
|         413|   -8.319489|
|         414|   -8.324394|
|         415|   -8.330265|
|         416|   -8.337115|
|         417|   -8.344956|
|         418|   -8.353805|
|         419|   -8.363674|
|         420|   -8.374577|
+-----------------------------------------------------------------------+
|        File Writing Summary       |              Filename             |
+-----------------------------------------------------------------------+
|SU2 ASCII restart                  |restart.csv                        |
|Paraview Multiblock                |flow.vtm                           |
+-----------------------------------------------------------------------+
+-------------------------+
|  Inner_Iter|      rms[P]|
+-------------------------+
|         421|   -8.386528|
|         422|   -8.399534|
|         423|   -8.413599|
|         424|   -8.428720|
|         425|   -8.444880|
|         426|   -8.462046|
|         427|   -8.480160|
|         428|   -8.499130|
|         429|   -8.518817|
|         430|   -8.539024|
+-----------------------------------------------------------------------+
|        File Writing Summary       |              Filename             |
+-----------------------------------------------------------------------+
|SU2 ASCII restart                  |restart.csv                        |
|Paraview Multiblock                |flow.vtm                           |
+-----------------------------------------------------------------------+
+-------------------------+
|  Inner_Iter|      rms[P]|
+-------------------------+
|         431|   -8.559472|
|         432|   -8.579785|
|         433|   -8.599474|
|         434|   -8.617930|
|         435|   -8.634434|
|         436|   -8.648200|
|         437|   -8.658453|
|         438|   -8.664539|
|         439|   -8.666040|
|         440|   -8.662860|
+-----------------------------------------------------------------------+
|        File Writing Summary       |              Filename             |
+-----------------------------------------------------------------------+
|SU2 ASCII restart                  |restart.csv                        |
|Paraview Multiblock                |flow.vtm                           |
+-----------------------------------------------------------------------+
+-------------------------+
|  Inner_Iter|      rms[P]|
+-------------------------+
|         441|   -8.655245|
|         442|   -8.643734|
|         443|   -8.629048|
|         444|   -8.611981|
|         445|   -8.593296|
|         446|   -8.573667|
|         447|   -8.553652|
|         448|   -8.533687|
|         449|   -8.514104|
|         450|   -8.495145|
+-----------------------------------------------------------------------+
|        File Writing Summary       |              Filename             |
+-----------------------------------------------------------------------+
|SU2 ASCII restart                  |restart.csv                        |
|Paraview Multiblock                |flow.vtm                           |
+-----------------------------------------------------------------------+
+-------------------------+
|  Inner_Iter|      rms[P]|
+-------------------------+
|         451|   -8.476981|
|         452|   -8.459729|
|         453|   -8.443464|
|         454|   -8.428237|
|         455|   -8.414072|
|         456|   -8.400983|
|         457|   -8.388973|
|         458|   -8.378038|
|         459|   -8.368171|
|         460|   -8.359363|
+-----------------------------------------------------------------------+
|        File Writing Summary       |              Filename             |
+-----------------------------------------------------------------------+
|SU2 ASCII restart                  |restart.csv                        |
|Paraview Multiblock                |flow.vtm                           |
+-----------------------------------------------------------------------+
+-------------------------+
|  Inner_Iter|      rms[P]|
+-------------------------+
|         461|   -8.351604|
|         462|   -8.344885|
|         463|   -8.339198|
|         464|   -8.334536|
|         465|   -8.330896|
|         466|   -8.328273|
|         467|   -8.326671|
|         468|   -8.326090|
|         469|   -8.326539|
|         470|   -8.328026|
+-----------------------------------------------------------------------+
|        File Writing Summary       |              Filename             |
+-----------------------------------------------------------------------+
|SU2 ASCII restart                  |restart.csv                        |
|Paraview Multiblock                |flow.vtm                           |
+-----------------------------------------------------------------------+
+-------------------------+
|  Inner_Iter|      rms[P]|
+-------------------------+
|         471|   -8.330566|
|         472|   -8.334174|
|         473|   -8.338874|
|         474|   -8.344690|
|         475|   -8.351654|
|         476|   -8.359801|
|         477|   -8.369174|
|         478|   -8.379821|
|         479|   -8.391799|
|         480|   -8.405172|
+-----------------------------------------------------------------------+
|        File Writing Summary       |              Filename             |
+-----------------------------------------------------------------------+
|SU2 ASCII restart                  |restart.csv                        |
|Paraview Multiblock                |flow.vtm                           |
+-----------------------------------------------------------------------+
+-------------------------+
|  Inner_Iter|      rms[P]|
+-------------------------+
|         481|   -8.420013|
|         482|   -8.436407|
|         483|   -8.454448|
|         484|   -8.474245|
|         485|   -8.495918|
|         486|   -8.519601|
|         487|   -8.545439|
|         488|   -8.573588|
|         489|   -8.604200|
|         490|   -8.637410|
+-----------------------------------------------------------------------+
|        File Writing Summary       |              Filename             |
+-----------------------------------------------------------------------+
|SU2 ASCII restart                  |restart.csv                        |
|Paraview Multiblock                |flow.vtm                           |
+-----------------------------------------------------------------------+
+-------------------------+
|  Inner_Iter|      rms[P]|
+-------------------------+
|         491|   -8.673298|
|         492|   -8.711826|
|         493|   -8.752717|
|         494|   -8.795253|
|         495|   -8.837955|
|         496|   -8.878167|
|         497|   -8.911779|
|         498|   -8.933658|
|         499|   -8.939409|
|         500|   -8.927785|
+-----------------------------------------------------------------------+
|        File Writing Summary       |              Filename             |
+-----------------------------------------------------------------------+
|SU2 ASCII restart                  |restart.csv                        |
|Paraview Multiblock                |flow.vtm                           |
+-----------------------------------------------------------------------+
+-------------------------+
|  Inner_Iter|      rms[P]|
+-------------------------+
|         501|   -8.901514|
|         502|   -8.865575|
|         503|   -8.824829|
|         504|   -8.782812|
|         505|   -8.741671|
|         506|   -8.702540|
|         507|   -8.665936|
|         508|   -8.632024|
|         509|   -8.600788|
|         510|   -8.572123|
+-----------------------------------------------------------------------+
|        File Writing Summary       |              Filename             |
+-----------------------------------------------------------------------+
|SU2 ASCII restart                  |restart.csv                        |
|Paraview Multiblock                |flow.vtm                           |
+-----------------------------------------------------------------------+
+-------------------------+
|  Inner_Iter|      rms[P]|
+-------------------------+
|         511|   -8.545886|
|         512|   -8.521926|
|         513|   -8.500092|
|         514|   -8.480248|
|         515|   -8.462266|
|         516|   -8.446033|
|         517|   -8.431452|
|         518|   -8.418436|
|         519|   -8.406907|
|         520|   -8.396802|
+-----------------------------------------------------------------------+
|        File Writing Summary       |              Filename             |
+-----------------------------------------------------------------------+
|SU2 ASCII restart                  |restart.csv                        |
|Paraview Multiblock                |flow.vtm                           |
+-----------------------------------------------------------------------+
+-------------------------+
|  Inner_Iter|      rms[P]|
+-------------------------+
|         521|   -8.388064|
|         522|   -8.380645|
|         523|   -8.374504|
|         524|   -8.369609|
|         525|   -8.365931|
|         526|   -8.363451|
|         527|   -8.362153|
|         528|   -8.362027|
|         529|   -8.363068|
|         530|   -8.365277|
+-----------------------------------------------------------------------+
|        File Writing Summary       |              Filename             |
+-----------------------------------------------------------------------+
|SU2 ASCII restart                  |restart.csv                        |
|Paraview Multiblock                |flow.vtm                           |
+-----------------------------------------------------------------------+
+-------------------------+
|  Inner_Iter|      rms[P]|
+-------------------------+
|         531|   -8.368660|
|         532|   -8.373226|
|         533|   -8.378993|
|         534|   -8.385980|
|         535|   -8.394215|
|         536|   -8.403729|
|         537|   -8.414561|
|         538|   -8.426755|
|         539|   -8.440362|
|         540|   -8.455437|
+-----------------------------------------------------------------------+
|        File Writing Summary       |              Filename             |
+-----------------------------------------------------------------------+
|SU2 ASCII restart                  |restart.csv                        |
|Paraview Multiblock                |flow.vtm                           |
+-----------------------------------------------------------------------+
+-------------------------+
|  Inner_Iter|      rms[P]|
+-------------------------+
|         541|   -8.472042|
|         542|   -8.490244|
|         543|   -8.510112|
|         544|   -8.531714|
|         545|   -8.555111|
|         546|   -8.580346|
|         547|   -8.607430|
|         548|   -8.636311|
|         549|   -8.666834|
|         550|   -8.698673|
+-----------------------------------------------------------------------+
|        File Writing Summary       |              Filename             |
+-----------------------------------------------------------------------+
|SU2 ASCII restart                  |restart.csv                        |
|Paraview Multiblock                |flow.vtm                           |
+-----------------------------------------------------------------------+
+-------------------------+
|  Inner_Iter|      rms[P]|
+-------------------------+
|         551|   -8.731240|
|         552|   -8.763556|
|         553|   -8.794125|
|         554|   -8.820870|
|         555|   -8.841264|
|         556|   -8.852821|
|         557|   -8.853871|
|         558|   -8.844251|
|         559|   -8.825371|
|         560|   -8.799623|
+-----------------------------------------------------------------------+
|        File Writing Summary       |              Filename             |
+-----------------------------------------------------------------------+
|SU2 ASCII restart                  |restart.csv                        |
|Paraview Multiblock                |flow.vtm                           |
+-----------------------------------------------------------------------+
+-------------------------+
|  Inner_Iter|      rms[P]|
+-------------------------+
|         561|   -8.769575|
|         562|   -8.737412|
|         563|   -8.704745|
|         564|   -8.672643|
|         565|   -8.641760|
|         566|   -8.612466|
|         567|   -8.584941|
|         568|   -8.559254|
|         569|   -8.535403|
|         570|   -8.513348|
+-----------------------------------------------------------------------+
|        File Writing Summary       |              Filename             |
+-----------------------------------------------------------------------+
|SU2 ASCII restart                  |restart.csv                        |
|Paraview Multiblock                |flow.vtm                           |
+-----------------------------------------------------------------------+
+-------------------------+
|  Inner_Iter|      rms[P]|
+-------------------------+
|         571|   -8.493028|
|         572|   -8.474377|
|         573|   -8.457324|
|         574|   -8.441801|
|         575|   -8.427744|
|         576|   -8.415093|
|         577|   -8.403796|
|         578|   -8.393806|
|         579|   -8.385082|
|         580|   -8.377588|
+-----------------------------------------------------------------------+
|        File Writing Summary       |              Filename             |
+-----------------------------------------------------------------------+
|SU2 ASCII restart                  |restart.csv                        |
|Paraview Multiblock                |flow.vtm                           |
+-----------------------------------------------------------------------+
+-------------------------+
|  Inner_Iter|      rms[P]|
+-------------------------+
|         581|   -8.371296|
|         582|   -8.366179|
|         583|   -8.362220|
|         584|   -8.359403|
|         585|   -8.357720|
|         586|   -8.357166|
|         587|   -8.357739|
|         588|   -8.359446|
|         589|   -8.362296|
|         590|   -8.366304|
+-----------------------------------------------------------------------+
|        File Writing Summary       |              Filename             |
+-----------------------------------------------------------------------+
|SU2 ASCII restart                  |restart.csv                        |
|Paraview Multiblock                |flow.vtm                           |
+-----------------------------------------------------------------------+
+-------------------------+
|  Inner_Iter|      rms[P]|
+-------------------------+
|         591|   -8.371488|
|         592|   -8.377875|
|         593|   -8.385496|
|         594|   -8.394387|
|         595|   -8.404593|
|         596|   -8.416165|
|         597|   -8.429162|
|         598|   -8.443652|
|         599|   -8.459711|
|         600|   -8.477425|
+-----------------------------------------------------------------------+
|        File Writing Summary       |              Filename             |
+-----------------------------------------------------------------------+
|SU2 ASCII restart                  |restart.csv                        |
|Paraview Multiblock                |flow.vtm                           |
+-----------------------------------------------------------------------+
+-------------------------+
|  Inner_Iter|      rms[P]|
+-------------------------+
|         601|   -8.496889|
|         602|   -8.518207|
|         603|   -8.541489|
|         604|   -8.566845|
|         605|   -8.594378|
|         606|   -8.624165|
|         607|   -8.656234|
|         608|   -8.690498|
|         609|   -8.726676|
|         610|   -8.764150|
+-----------------------------------------------------------------------+
|        File Writing Summary       |              Filename             |
+-----------------------------------------------------------------------+
|SU2 ASCII restart                  |restart.csv          