
-------------------------------------------------------------------------
|    ___ _   _ ___                                                      |
|   / __| | | |_  )   Release 8.0.0 "Harrier"                           |
|   \__ \ |_| |/ /                                                      |
|   |___/\___//___|   Suite (Computational Fluid Dynamics Code)         |
|                                                                       |
-------------------------------------------------------------------------
| SU2 Project Website: https://su2code.github.io                        |
|                                                                       |
| The SU2 Project is maintained by the SU2 Foundation                   |
| (http://su2foundation.org)                                            |
-------------------------------------------------------------------------
| Copyright 2012-2023, SU2 Contributors                                 |
|                                                                       |
| SU2 is free software; you can redistribute it and/or                  |
| modify it under the terms of the GNU Lesser General Public            |
| License as published by the Free Software Foundation; either          |
| version 2.1 of the License, or (at your option) any later version.    |
|                                                                       |
| SU2 is distributed in the hope that it will be useful,                |
| but WITHOUT ANY WARRANTY; without even the implied warranty of        |
| MERCHANTABILITY or FITNESS FOR A PARTICULAR PURPOSE. See the GNU      |
| Lesser General Public License for more details.                       |
|                                                                       |
| You should have received a copy of the GNU Lesser General Public      |
| License along with SU2. If not, see <http://www.gnu.org/licenses/>.   |
-------------------------------------------------------------------------

Parsing config file for zone 0

----------------- Physical Case Definition ( Zone 0 ) -------------------
Incompressible RANS equations.
Turbulence model: Negative-Spalart-Allmaras
Hybrid RANS/LES: No Hybrid RANS/LES
Reading and writing ASCII SU2 native restart files.
Read flow solution from: solution.
Dimensional simulation.
The reference area is 1 m^2.
The semi-span will be computed using the max y(3D) value.
The reference length is 1 m.
Input mesh file name: mesh.su2

--------------- Space Numerical Integration ( Zone 0 ) ------------------
Flux difference splitting (FDS) upwind scheme for the flow inviscid terms.
Second order integration in space, with slope limiter.
Venkatakrishnan slope-limiting method, with constant: 0.05.
The reference element size is: 1. 
Average of gradients with correction (viscous flow terms).
Average of gradients with correction (viscous turbulence terms).
Gradient for upwind reconstruction: Green-Gauss.
Gradient for viscous and source terms: Green-Gauss.

--------------- Time Numerical Integration  ( Zone 0 ) ------------------
Local time stepping (steady state simulation).
Euler implicit method for the flow equations.
FGMRES is used for solving the linear system.
Using a LU-SGS preconditioning.
Convergence criteria of the linear solver: 1e-10.
Max number of linear iterations: 10.
No CFL adaptation.
Courant-Friedrichs-Lewy number:        1
Euler implicit time integration for the turbulence model.

------------------ Convergence Criteria  ( Zone 0 ) ---------------------
Maximum number of solver subiterations: 1234.
Begin convergence monitoring at iteration 10.
Residual minimum value: 1e-14.
Cauchy series min. value: 1e-10.
Number of Cauchy elements: 100.
Begin windowed time average at iteration 0.

-------------------- Output Information ( Zone 0 ) ----------------------
File writing frequency: 
+------------------------------------+
|                     File| Frequency|
+------------------------------------+
|            RESTART_ASCII|        10|
|      PARAVIEW_MULTIBLOCK|        10|
+------------------------------------+
Writing the convergence history file every 1 inner iterations.
Writing the screen convergence history every 1 inner iterations.
The tabular file format is CSV (.csv).
Convergence history file name: history.
Forces breakdown file name: forces_breakdown.dat.
Surface file name: surface.
Volume file name: flow.
Restart file name: restart.

------------- Config File Boundary Information ( Zone 0 ) ---------------
+-----------------------------------------------------------------------+
|                        Marker Type|                        Marker Name|
+-----------------------------------------------------------------------+
|                    Isothermal wall|                          gas_inlet|
|                                   |                    air_axial_inlet|
|                                   |                             outlet|
|                                   |                               axis|
|                                   |                               wall|
+-----------------------------------------------------------------------+

-------------------- Output Preprocessing ( Zone 0 ) --------------------

WARNING: SURFACE_PRESSURE_DROP can only be computed for at least 2 surfaces (outlet, inlet, ...)

  Info: Ignoring the following screen output fields:
  RMS_DENSITY
Screen output fields: INNER_ITER, RMS_PRESSURE
History output group(s): ITER, RMS_RES
Convergence field(s): RMS_PRESSURE, RMS_VELOCITY-X
Warning: No (valid) fields chosen for time convergence monitoring. Time convergence monitoring inactive.
Volume output fields: RESIDUAL, SOLUTION, PRIMITIVE, COORDINATES

------------------- Geometry Preprocessing ( Zone 0 ) -------------------
Two dimensional problem.
3510 grid points.
3364 volume elements.
5 surface markers.
29 boundary elements in index 0 (Marker = gas_inlet).
29 boundary elements in index 1 (Marker = air_axial_inlet).
29 boundary elements in index 2 (Marker = outlet).
87 boundary elements in index 3 (Marker = axis).
116 boundary elements in index 4 (Marker = wall).
3364 quadrilaterals.
Setting point connectivity.
Renumbering points (Reverse Cuthill McKee Ordering).
Recomputing point connectivity.
Setting element connectivity.
Checking the numerical grid orientation.
There has been a re-orientation of 2523 QUADRILATERAL volume elements.
There has been a re-orientation of 290 LINE surface elements.
Identifying edges and vertices.
Setting the control volume structure.
Area of the computational grid: 0.002925.
Searching for the closest normal neighbors to the surfaces.
Storing a mapping from global to local point index.
Compute the surface curvature.
Max K: 5722.1. Mean K: 45.6971. Standard deviation K: 397.615.
Checking for periodicity.
Computing mesh quality statistics for the dual control volumes.
+--------------------------------------------------------------+
|           Mesh Quality Metric|        Minimum|        Maximum|
+--------------------------------------------------------------+
|    Orthogonality Angle (deg.)|             90|             90|
|     CV Face Area Aspect Ratio|        1.00061|         217.83|
|           CV Sub-Volume Ratio|              1|        4.90961|
+--------------------------------------------------------------+
Finding max control volume width.
Wetted area = 0 m.
Area projection in the x-plane = 0 m, y-plane = 0 m.
Max. coordinate in the x-direction = -1e+10 m, y-direction = -1e+10 m.
Min. coordinate in the x-direction = 1e+10 m, y-direction = 1e+10 m.
Computing wall distances.

-------------------- Solver Preprocessing ( Zone 0 ) --------------------
 Warning: There is no restart file (flow.meta).
 Computation will continue without updating metadata parameters.
Incompressible flow: rho_ref, vel_ref, temp_ref, p_ref
are set to 1.0 in order to perform a dimensional calculation.
Force coefficients computed using initial values.
The reference area for force coeffs. is 1 m^2.
The reference length for force coeffs. is 1 m.
The pressure is decomposed into thermodynamic and dynamic components.
The initial value of the dynamic pressure is 0.
Mach number: 0, computed using fluid speed of sound.
For external flows, the initial state is imposed at the far-field.
Angle of attack (deg): 0, computed using the initial velocity.
Side slip angle (deg): 0, computed using the initial velocity.
Reynolds number per meter: 72017.1, computed using initial values.
Reynolds number is a byproduct of inputs only (not used internally).
SI units only. The grid should be dimensional (meters).
Energy equation is active and coupled for variable density.

-- Models:
+------------------------------------------------------------------------------+
|          Viscosity Model|        Conductivity Model|              Fluid Model|
+------------------------------------------------------------------------------+
|               SUTHERLAND|          CONSTANT_PRANDTL|            INC_IDEAL_GAS|
+------------------------------------------------------------------------------+
-- Fluid properties:
+------------------------------------------------------------------------------+
|                  Name|    Dim. value|    Ref. value|      Unit|Non-dim. value|
+------------------------------------------------------------------------------+
|        Ref. Viscosity|     1.716e-05|             1|   N.s/m^2|     1.716e-05|
|      Sutherland Temp.|        273.15|             1|         K|        273.15|
|     Sutherland Const.|         110.4|             1|         K|         110.4|
+------------------------------------------------------------------------------+
|        Prandtl (Lam.)|             -|             -|         -|          0.72|
|       Prandtl (Turb.)|             -|             -|         -|           0.9|
+------------------------------------------------------------------------------+
|       Spec. Heat (Cp)|          1001|             1|  N.m/kg.K|          1001|
|      Molecular weight|          28.9|             1|     g/mol|          28.9|
|          Gas Constant|       287.698|             1|  N.m/kg.K|       287.698|
|       Therm. Pressure|        106825|             1|        Pa|        106825|
+------------------------------------------------------------------------------+
-- Initial and free-stream conditions:
+------------------------------------------------------------------------------+
|                  Name|    Dim. value|    Ref. value|      Unit|Non-dim. value|
+------------------------------------------------------------------------------+
|      Dynamic Pressure|             0|             1|        Pa|             0|
|        Total Pressure|        0.6443|             1|        Pa|        0.6443|
|               Density|        1.2886|             1|    kg/m^3|        1.2886|
|           Temperature|        288.15|             1|         K|        288.15|
|            Velocity-X|             1|             1|       m/s|             1|
|            Velocity-Y|             0|             1|       m/s|             0|
|    Velocity Magnitude|             1|             1|       m/s|             1|
+------------------------------------------------------------------------------+
|             Viscosity|    1.7893e-05|             1|   N.s/m^2|    1.7893e-05|
|          Conductivity|             -|             1|   W/m^2.K|             -|
|     Turb. Kin. Energy|       0.00375|             1|   m^2/s^2|       0.00375|
|     Spec. Dissipation|       27.0064|             1|       1/s|       27.0064|
+------------------------------------------------------------------------------+
|           Mach Number|             -|             -|         -|             0|
|       Reynolds Number|             -|             -|         -|       72017.1|
+------------------------------------------------------------------------------+
Initialize Jacobian structure (Navier-Stokes). MG level: 0.
Initialize Jacobian structure (SA model).

------------------- Numerics Preprocessing ( Zone 0 ) -------------------

----------------- Integration Preprocessing ( Zone 0 ) ------------------

------------------- Iteration Preprocessing ( Zone 0 ) ------------------
Euler/Navier-Stokes/RANS fluid iteration.

------------------------------ Begin Solver -----------------------------

Simulation Run using the Single-zone Driver
+-------------------------+
|  Inner_Iter|      rms[P]|
+-------------------------+
|           0|   -3.466027|
|           1|   -3.573483|
|           2|   -3.590147|
|           3|   -3.602605|
|           4|   -3.612364|
|           5|   -3.620277|
|           6|   -3.626883|
|           7|   -3.632533|
|           8|   -3.637464|
|           9|   -3.641837|
|          10|   -3.645769|
+-----------------------------------------------------------------------+
|        File Writing Summary       |              Filename             |
+-----------------------------------------------------------------------+
|SU2 ASCII restart                  |restart.csv                        |
|Paraview Multiblock                |flow.vtm                           |
|Paraview Multiblock + iter         |flow_000010.vtm                    |
+-----------------------------------------------------------------------+
+-------------------------+
|  Inner_Iter|      rms[P]|
+-------------------------+
|          11|   -3.649342|
|          12|   -3.652620|
|          13|   -3.655650|
|          14|   -3.658467|
|          15|   -3.661100|
|          16|   -3.663572|
|          17|   -3.665903|
|          18|   -3.668107|
|          19|   -3.670197|
|          20|   -3.672184|
+-----------------------------------------------------------------------+
|        File Writing Summary       |              Filename             |
+-----------------------------------------------------------------------+
|SU2 ASCII restart                  |restart.csv                        |
|Paraview Multiblock                |flow.vtm                           |
|Paraview Multiblock + iter         |flow_000020.vtm                    |
+-----------------------------------------------------------------------+
+-------------------------+
|  Inner_Iter|      rms[P]|
+-------------------------+
|          21|   -3.674077|
|          22|   -3.675885|
|          23|   -3.677614|
|          24|   -3.679271|
|          25|   -3.680862|
|          26|   -3.682391|
|          27|   -3.683863|
|          28|   -3.685281|
|          29|   -3.686650|
|          30|   -3.687973|
+-----------------------------------------------------------------------+
|        File Writing Summary       |              Filename             |
+-----------------------------------------------------------------------+
|SU2 ASCII restart                  |restart.csv                        |
|Paraview Multiblock                |flow.vtm                           |
|Paraview Multiblock + iter         |flow_000030.vtm                    |
+-----------------------------------------------------------------------+
+-------------------------+
|  Inner_Iter|      rms[P]|
+-------------------------+
|          31|   -3.689253|
|          32|   -3.690491|
|          33|   -3.691692|
|          34|   -3.692857|
|          35|   -3.693988|
|          36|   -3.695087|
|          37|   -3.696156|
|          38|   -3.697197|
|          39|   -3.698210|
|          40|   -3.699198|
+-----------------------------------------------------------------------+
|        File Writing Summary       |              Filename             |
+-----------------------------------------------------------------------+
|SU2 ASCII restart                  |restart.csv                        |
|Paraview Multiblock                |flow.vtm                           |
|Paraview Multiblock + iter         |flow_000040.vtm                    |
+-----------------------------------------------------------------------+
+-------------------------+
|  Inner_Iter|      rms[P]|
+-------------------------+
|          41|   -3.700161|
|          42|   -3.701101|
|          43|   -3.702020|
|          44|   -3.702917|
|          45|   -3.703794|
|          46|   -3.704652|
|          47|   -3.705491|
|          48|   -3.706313|
|          49|   -3.707118|
|          50|   -3.707907|
+-----------------------------------------------------------------------+
|        File Writing Summary       |              Filename             |
+-----------------------------------------------------------------------+
|SU2 ASCII restart                  |restart.csv                        |
|Paraview Multiblock                |flow.vtm                           |
|Paraview Multiblock + iter         |flow_000050.vtm                    |
+-----------------------------------------------------------------------+
+-------------------------+
|  Inner_Iter|      rms[P]|
+-------------------------+
|          51|   -3.708681|
|          52|   -3.709440|
|          53|   -3.710184|
|          54|   -3.710915|
|          55|   -3.711633|
|          56|   -3.712340|
|          57|   -3.713034|
|          58|   -3.713716|
|          59|   -3.714388|
|          60|   -3.715048|
+-----------------------------------------------------------------------+
|        File Writing Summary       |              Filename             |
+-----------------------------------------------------------------------+
|SU2 ASCII restart                  |restart.csv                        |
|Paraview Multiblock                |flow.vtm                           |
|Paraview Multiblock + iter         |flow_000060.vtm                    |
+-----------------------------------------------------------------------+
+-------------------------+
|  Inner_Iter|      rms[P]|
+-------------------------+
|          61|   -3.715698|
|          62|   -3.716338|
|          63|   -3.716968|
|          64|   -3.717589|
|          65|   -3.718201|
|          66|   -3.718804|
|          67|   -3.719399|
|          68|   -3.719985|
|          69|   -3.720564|
|          70|   -3.721135|
+-----------------------------------------------------------------------+
|        File Writing Summary       |              Filename             |
+-----------------------------------------------------------------------+
|SU2 ASCII restart                  |restart.csv                        |
|Paraview Multiblock                |flow.vtm                           |
|Paraview Multiblock + iter         |flow_000070.vtm                    |
+-----------------------------------------------------------------------+
+-------------------------+
|  Inner_Iter|      rms[P]|
+-------------------------+
|          71|   -3.721699|
|          72|   -3.722256|
|          73|   -3.722806|
|          74|   -3.723350|
|          75|   -3.723888|
|          76|   -3.724419|
|          77|   -3.724946|
|          78|   -3.725466|
|          79|   -3.725981|
|          80|   -3.726491|
+-----------------------------------------------------------------------+
|        File Writing Summary       |              Filename             |
+-----------------------------------------------------------------------+
|SU2 ASCII restart                  |restart.csv                        |
|Paraview Multiblock                |flow.vtm                           |
|Paraview Multiblock + iter         |flow_000080.vtm                    |
+-----------------------------------------------------------------------+
+-------------------------+
|  Inner_Iter|      rms[P]|
+-------------------------+
|          81|   -3.726997|
|          82|   -3.727499|
|          83|   -3.727998|
|          84|   -3.728494|
|          85|   -3.728986|
|          86|   -3.729474|
|          87|   -3.729958|
|          88|   -3.730437|
|          89|   -3.730908|
|          90|   -3.731374|
+-----------------------------------------------------------------------+
|        File Writing Summary       |              Filename             |
+-----------------------------------------------------------------------+
|SU2 ASCII restart                  |restart.csv                        |
|Paraview Multiblock                |flow.vtm                           |
|Paraview Multiblock + iter         |flow_000090.vtm                    |
+-----------------------------------------------------------------------+
+-------------------------+
|  Inner_Iter|      rms[P]|
+-------------------------+
|          91|   -3.731835|
|          92|   -3.732292|
|          93|   -3.732743|
|          94|   -3.733191|
|          95|   -3.733634|
|                                                                                                                                                                                                                                                                                                                                                                                                                                                                                                                                                                                                                                                                                                                                                                                                                                                                                                                                                                                                                                                                                                                                                                                                                                                                                                                                                                                                                                                                                                                                                                                                                                                                                                                                                                                                                                                                                                                                                                                                                                                                                                                                                                                                                                                                                                                                                                                                                                                                                                                                                                                                                                                                                                                                                                                                                                                                                                                                                                                                                                                                                                                                                                                                                                                                                                                                                                                                                                                                                                                                                                                                                                                                                                                                                                                                                                                                                                                                                                                                                                                                                                                                                                                                                                                                                                                                                                                                                                                                                                                                                                                                                                                                                                                                                                                                                                                                                                                                                                                                                                                                                                                                                                                                                                                                                                                                                                                                                                                                                                                                                                                                                                                                                                                                                                                                                                                                                                                                                                                                                                                                                                                                                                                                                                                                                                                                                                                                                                                                                                                                                                                                                                                                                                                                                                                                                                                                                                                                                                                                                                                                                                                                                                                                                                                                                                                                                                                                                                                                                                                                                                                                                                                                                                                                                                                                                                                                                                                                                                                                                                                                                                                                                                                                                                                                                                                                                                                                                                                                                                                                                                                                                                                                                                                                                                                                                                                                                                                                                                                                                                                                                                                                                                                                                                                                                                                                                                                                                                                                                                                                                                                                                                                                                                                                                                                                                                                                                                                                                                                                                                                                                                                                                                                                                                                                                                                                                                                                                                                                                                                                                                                                                                                                                                                                                                                                                                                                                                                                                                                                                                                                                                                                                                                                                                                                                                                                                                                                                                                                                                                                                                                                                                                                                                                                                                                                                                                                                                                                                                                                                                                                                                                                                                                                                                                                                                                                                                                                                                                                                                                                                                                                                                                                                                                                                                                                                                                                                                                                                                                                                                                                                                                                                                                                                                                                                                                                                                                                                                                                                                                                                                                                                                                                                                                                                                                                                                                                                                                                                                                                                                                                                                                                                                                                                                                                                                                                                                                                                                                                                                                                                                                                                                                                                                                                                                                                                                                                                                                                                                                                                                                                                                                                                                                                                                                                                                                                                                                                                                                                                                                                                                                                                                                                                                                                                                                                                                                                                                                                                                                                                                                                                                                                                                                                                                                                                                                                                                                                                                                                                                                                                                                                                                                                                                                                                                                                                                                                                                                                                                                                                                                                                                                                                                                                                                                                                                                                                                                                                                                                                                                                                                                                                                                                                                                                                                                                                                                                                                                                                                                                                                                                                                                                                                                                                                                                                                                                                                                                                                                                                                                                                                                                                                                                                                                                                                                                                                                                                                                                                                                                                                                                                                                                                                                                                                                                                                                                                                                                                                                                                                                                                                                                                                                                                                                                                                                                                                                                                                                                                                                                                                                                                                                                                                                                                                                                                                                                                                                                                                                                                                                                                                                                                                                                                                                                                                                                                                                                                                                                                                                                                                                                                                                                                                                                                                                                                                                                                                                                                                                                                                                                                                                                                                                                                                                                                                                                                                                                                                                                                                                                                                                                                                                                                                                                                                                                                                                                                                                                                                                                                                                                                                                                                                                                                                                                                                                                                                                                                                                                                                                                                                                                                                                                                                                                                                                                                                                                                                                                                                                                                                                                                                                                                                                                                                                                                                                                                                                                                                                                                                                                                                                                                                                                                                                                                                                                                                                                                                                                                                                                                                                                                                                                                                                                                                                                                                                                                                                                                                                                                                                                                                                                                                                                                                                                                                                                                                                                                                                                                                                                                                                                                                                                                                                                                                                                                                                                                                                                                                                                                                                                                                                                                                                                                                                                                                                                                                                                                                                                                                                                                                                                                                                                                                                                                                                                                                                                                                                                                                                                                                                                                                                                                                                                                                                                                                                                                                                                                                                                                                                                                                                                                                                                                                                                                                                                                                                                                                                                                                                                                                                                                                                                                                                                                                                                                                                                                                                                                                                                                                                                                                                                                                                                                                                                                                                                                                                                                                                                                                                                                                                                                                                                                                                                                                                                                                                                                                                                                                                                                                                                                                                                                                                                                                                                                                                                                                                                                                                                                                                                                                                                                                                                                                                                                                                                                                                                                                                                                                                                                                                                                                                                                                                                                                                                                                                                                                                                                                                                                                                                                                                                                                                                                                                                                                                                                                                                                                                                                                                                                                                                                                                                                                                                                                                                                                                                                                                                                                                                                                                                                                                                                                                                                                                                                                                                                                                                                                                                                                                                                                                                                                                                                                                                                                                                                                                                                                                                                                                                                                                                                                                                                                                                                                                                                                                                                                                                                                                                                                                                                                                                                                                                                                                                                                                                                                                                                                                                                                                                                                                                                                                                                                                                                                                                                                                                                                                                                                                                                                                                                                                                                                                                                                                                                                                                                                                                                                                                                                                                                                                                                                                                                                                                                                                                                                                                                                                                                                                                                                                                                                                                                                                                                                                                                                                                                                                                                                                                                                                                                                                                                                                                                                                                                                                                                                                                                                                                                                                                                                                                                                                                                                                                                                                                                                                                                                                                                                                                                                                                                                                                                                                                                                                                                                                                                                                                                                                                                                                                                                                                                                                                                                                                                                                                                                                                                                                                                                                                                                                                                                                                                                                                                                                                                                                                                                                                                                                                                                                                                                                                                                                                                                                                                                                                                                                                                                                                                                                                                                                                                                                                                                                                                                                                                                                                                                                                                                                                                                                                                                                                                                                                                                                                                                                                                                                                                                                                                                                                                                                                                                                                                                                                                                                                                                                                                                                                                                                                                                                                                                                                                                                                                                                                                                                                                                                                                                                                                                                                                                                                                                                                                                                                                                                                                                                                                                                                                                                                                                                                                                                                                                                                                                                                                                                                                                                                                                                                                                                                                                                                                                                                                                                                                                                                                                                                                                                                                                                                                                                                                                                                                                                                                                                                                                                                                                                                         |restart.csv                        |
|Paraview Multiblock                |flow.vtm                           |
|Paraview Multiblock + iter         |flow_000560.vtm                    |
+-----------------------------------------------------------------------+
+-------------------------+
|  Inner_Iter|      rms[P]|
+-------------------------+
|         561|   -3.863958|
|         562|   -3.864449|
|         563|   -3.864996|
|         564|   -3.865551|
|         565|   -3.866106|
|         566|   -3.866674|
|         567|   -3.867253|
|         568|   -3.867836|
|         569|   -3.868419|
|         570|   -3.869007|
+-----------------------------------------------------------------------+
|        File Writing Summary       |              Filename             |
+-----------------------------------------------------------------------+
|SU2 ASCII restart                  |restart.csv                        |
|Paraview Multiblock                |flow.vtm                           |
|Paraview Multiblock + iter         |flow_000570.vtm                    |
+-----------------------------------------------------------------------+
+-------------------------+
|  Inner_Iter|      rms[P]|
+-------------------------+
|         571|   -3.869594|
|         572|   -3.870189|
|         573|   -3.870793|
|         574|   -3.871401|
|         575|   -3.872020|
|         576|   -3.872639|
|         577|   -3.873264|
|         578|   -3.873893|
|         579|   -3.874526|
|         580|   -3.875160|
+-----------------------------------------------------------------------+
|        File Writing Summary       |              Filename             |
+-----------------------------------------------------------------------+
|SU2 ASCII restart                  |restart.csv                        |
|Paraview Multiblock                |flow.vtm                           |
|Paraview Multiblock + iter         |flow_000580.vtm                    |
+-----------------------------------------------------------------------+
+-------------------------+
|  Inner_Iter|      rms[P]|
+-------------------------+
|         581|   -3.875793|
|         582|   -3.876437|
|         583|   -3.877086|
|         584|   -3.877739|
|         585|   -3.878388|
|         586|   -3.879038|
|         587|   -3.879695|
|         588|   -3.880360|
|         589|   -3.881037|
|         590|   -3.881723|
+-----------------------------------------------------------------------+
|        File Writing Summary       |              Filename             |
+-----------------------------------------------------------------------+
|SU2 ASCII restart                  |restart.csv                        |
|Paraview Multiblock                |flow.vtm                           |
|Paraview Multiblock + iter         |flow_000590.vtm                    |
+-----------------------------------------------------------------------+
+-------------------------+
|  Inner_Iter|      rms[P]|
+-------------------------+
|         591|   -3.882427|
|         592|   -3.883153|
|         593|   -3.883886|
|         594|   -3.884623|
|         595|   -3.885360|
|         596|   -3.886091|
|         597|   -3.886821|
|         598|   -3.887543|
|         599|   -3.888261|
|         600|   -3.888968|
+-----------------------------------------------------------------------+
|        File Writing Summary       |              Filename             |
+-----------------------------------------------------------------------+
|SU2 ASCII restart                  |restart.csv                        |
|Paraview Multiblock                |flow.vtm                           |
|Paraview Multiblock + iter         |flow_000600.vtm                    |
+-----------------------------------------------------------------------+
+-------------------------+
|  Inner_Iter|      rms[P]|
+-------------------------+
|         601|   -3.889673|
|         602|   -3.890375|
|         603|   -3.891071|
|         604|   -3.891763|
|         605|   -3.892448|
|         606|   -3.893133|
|         607|   -3.893821|
|         608|   -3.894503|
|         609|   -3.895184|
|         610|   -3.895865|
+-----------------------------------------------------------------------+
|        File Writing Summary       |              Filename             |
+-----------------------------------------------------------------------+
|SU2 ASCII restart                  |restart.csv                        |
|Paraview Multiblock                |flow.vtm                           |
|Paraview Multiblock + iter         |flow_000610.vtm                    |
+-----------------------------------------------------------------------+
+-------------------------+
|  Inner_Iter|      rms[P]|
+-------------------------+
|         611|   -3.896554|
|         612|   -3.897246|
|         613|   -3.897941|
|         614|   -3.898660|
|         615|   -3.899387|
|         616|   -3.900116|
|         617|   -3.900848|
|         618|   -3.901584|
|         619|   -3.902330|
|         620|   -3.903084|
+-----------------------------------------------------------------------+
|        File Writing Summary       |              Filename             |
+-----------------------------------------------------------------------+
|SU2 ASCII restart                  |restart.csv                        |
|Paraview Multiblock                |flow.vtm                           |
|Paraview Multiblock + iter         |flow_000620.vtm                    |
+-----------------------------------------------------------------------+
+-------------------------+
|  Inner_Iter|      rms[P]|
+-------------------------+
|         621|   -3.903844|
|         622|   -3.904615|
|         623|   -3.905393|
|         624|   -3.906177|
|         625|   -3.906962|
|         626|   -3.907748|
|         627|   -3.908540|
|         628|   -3.909337|
|         629|   -3.910141|
|         630|   -3.910946|
+-----------------------------------------------------------------------+
|        File Writing Summary       |              Filename             |
+-----------------------------------------------------------------------+
|SU2 ASCII restart                  |restart.csv                        |
|Paraview Multiblock                |flow.vtm                           |
|Paraview Multiblock + iter         |flow_000630.vtm                    |
+-----------------------------------------------------------------------+
+-------------------------+
|  Inner_Iter|      rms[P]|
+-------------------------+
|         631|   -3.911756|
|         632|   -3.912574|
|         633|   -3.913396|
|         634|   -3.914212|
|         635|   -3.915030|
|         636|   -3.915849|
|         637|   -3.916666|
|         638|   -3.917475|
|         639|   -3.918282|
|         640|   -3.919077|
+-----------------------------------------------------------------------+
|        File Writing Summary       |              Filename             |
+-----------------------------------------------------------------------+
|SU2 ASCII restart                  |restart.csv                        |
|Paraview Multiblock                |flow.vtm                           |
|Paraview Multiblock + iter         |flow_000640.vtm                    |
+-----------------------------------------------------------------------+
+-------------------------+
|  Inner_Iter|      rms[P]|
+-------------------------+
|         641|   -3.919863|
|         642|   -3.920651|
|         643|   -3.921434|
|         644|   -3.922208|
|         645|   -3.922976|
|         646|   -3.923775|
|         647|   -3.924562|
|         648|   -3.925329|
|         649|   -3.926153|
|         650|   -3.926983|
+-----------------------------------------------------------------------+
|        File Writing Summary       |              Filename             |
+-----------------------------------------------------------------------+
|SU2 ASCII restart                  |restart.csv                        |
|Paraview Multiblock                |flow.vtm                           |
|Paraview Multiblock + iter         |flow_000650.vtm                    |
+-----------------------------------------------------------------------+
+-------------------------+
|  Inner_Iter|      rms[P]|
+-------------------------+
|         651|   -3.927809|
|         652|   -3.928624|
|         653|   -3.929421|
|         654|   -3.930198|
|         655|   -3.930960|
|         656|   -3.931692|
|         657|   -3.932398|
|         658|   -3.933080|
|         659|   -3.933744|
|         660|   -3.934397|
+-----------------------------------------------------------------------+
|        File Writing Summary       |              Filename             |
+-----------------------------------------------------------------------+
|SU2 ASCII restart                  |restart.csv                        |
|Paraview Multiblock                |flow.vtm                           |
|Paraview Multiblock + iter         |flow_000660.vtm                    |
+-----------------------------------------------------------------------+
+-------------------------+
|  Inner_Iter|      rms[P]|
+-------------------------+
|         661|   -3.935036|
|         662|   -3.935655|
|         663|   -3.936255|
|         664|   -3.936840|
|         665|   -3.937410|
|         666|   -3.937964|
|         667|   -3.938501|
|         668|   -3.939001|
|         669|   -3.939470|
|         670|   -3.939917|
+-----------------------------------------------------------------------+
|        File Writing Summary       |              Filename             |
+-----------------------------------------------------------------------+
|SU2 ASCII restart                  |restart.csv                        |
|Paraview Multiblock                |flow.vtm                           |
|Paraview Multiblock + iter         |flow_000670.vtm                    |
+-----------------------------------------------------------------------+
+-------------------------+
|  Inner_Iter|      rms[P]|
+-------------------------+
|         671|   -3.940350|
|         672|   -3.940770|
|         673|   -3.941178|
|         674|   -3.941560|
|         675|   -3.941924|
|         676|   -3.942269|
|         677|   -3.942581|
|         678|   -3.942874|
|         679|   -3.943160|
|         680|   -3.943431|
+-----------------------------------------------------------------------+
|        File Writing Summary       |              Filename             |
+-----------------------------------------------------------------------+
|SU2 ASCII restart                  |restart.csv                        |
|Paraview Multiblock                |flow.vtm                           |
|Paraview Multiblock + iter         |flow_000680.vtm                    |
+-----------------------------------------------------------------------+
+-------------------------+
|  Inner_Iter|      rms[P]|
+-------------------------+
|         681|   -3.943691|
|         682|   -3.943947|
|         683|   -3.944199|
|         684|   -3.944438|
|         685|   -3.944674|
|         686|   -3.944901|
|         687|   -3.945131|
|         688|   -3.945374|
|         689|   -3.945625|
|         690|   -3.945879|
+-----------------------------------------------------------------------+
|        File Writing Summary       |              Filename             |
+-----------------------------------------------------------------------+
|SU2 ASCII restart                  |restart.csv                        |
|Paraview Multiblock                |flow.vtm                           |
|Paraview Multiblock + iter         |flow_000690.vtm                    |
+-----------------------------------------------------------------------+
+-------------------------+
|  Inner_Iter|      rms[P]|
+-------------------------+
|         691|   -3.946134|
|         692|   -3.946394|
|         693|   -3.946664|
|         694|   -3.946939|
|         695|   -3.947215|
|         696|   -3.947487|
|         697|   -3.947751|
|         698|   -3.948014|
|         699|   -3.948276|
|         700|   -3.948545|
+-----------------------------------------------------------------------+
|        File Writing Summary       |              Filename             |
+-----------------------------------------------------------------------+
|SU2 ASCII restart                  |restart.csv                        |
|Paraview Multiblock                |flow.vtm                           |
|Paraview Multiblock + iter         |flow_000700.vtm                    |
+-----------------------------------------------------------------------+
+-------------------------+
|  Inner_Iter|      rms[P]|
+-------------------------+
|         701|   -3.948831|
|         702|   -3.949134|
|         703|   -3.949448|
|         704|   -3.949773|
|         705|   -3.950091|
|         706|   -3.950420|
|         707|   -3.950752|
|         708|   -3.951086|
|         709|   -3.951424|
|         710|   -3.951763|
+-----------------------------------------------------------------------+
|        File Writing Summary       |              Filename             |
+-----------------------------------------------------------------------+
|SU2 ASCII restart                  |restart.csv                        |
|Paraview Multiblock                |flow.vtm                           |
|Paraview Multiblock + iter         |flow_000710.vtm                    |
+-----------------------------------------------------------------------+
+-------------------------+
|  Inner_Iter|      rms[P]|
+-------------------------+
|         711|   -3.952088|
|         712|   -3.952410|
|         713|   -3.952742|
|         714|   -3.953090|
|         715|   -3.953446|
|         716|   -3.953794|
|         717|   -3.954139|
|         718|   -3.954490|
|         719|   -3.954849|
|         720|   -3.955205|
+-----------------------------------------------------------------------+
|        File Writing Summary       |              Filename             |
+-----------------------------------------------------------------------+
|SU2 ASCII restart                  |restart.csv                        |
|Paraview Multiblock                |flow.vtm                           |
|Paraview Multiblock + iter         |flow_000720.vtm                    |
+-----------------------------------------------------------------------+
+-------------------------+
|  Inner_Iter|      rms[P]|
+-------------------------+
|         721|   -3.955566|
|         722|   -3.955912|
|         723|   -3.956252|
|         724|   -3.956592|
|         725|   -3.956934|
|         726|   -3.957280|
|         727|   -3.957637|
|         728|   -3.957997|
|         729|   -3.958360|
|         730|   -3.958735|
+-----------------------------------------------------------------------+
|        File Writing Summary       |              Filename             |
+-----------------------------------------------------------------------+
|SU2 ASCII restart                  |restart.csv                        |
|Paraview Multiblock                |flow.vtm                           |
|Paraview Multiblock + iter         |flow_000730.vtm                    |
+-----------------------------------------------------------------------+
+-------------------------+
|  Inner_Iter|      rms[P]|
+-------------------------+
|         731|   -3.959169|
|         732|   -3.959628|
|         733|   -3.960085|
|         734|   -3.960551|
|         735|   -3.961042|
|         736|   -3.961546|
|         737|   -3.962059|
|         738|   -3.962570|
|         739|   -3.963102|
|         740|   -3.963647|
+-----------------------------------------------------------------------+
|        File Writing Summary       |              Filename             |
+-----------------------------------------------------------------------+
|SU2 ASCII restart                  |restart.csv                        |
|Paraview Multiblock                |flow.vtm                           |
|Paraview Multiblock + iter         |flow_000740.vtm                    |
+-----------------------------------------------------------------------+
+-------------------------+
|  Inner_Iter|      rms[P]|
+-------------------------+
|         741|   -3.964192|
|         742|   -3.964746|
|         743|   -3.965296|
|         744|   -3.965863|
|         745|   -3.966432|
|         746|  